

         NASA-GLENN CHEMICAL EQUILIBRIUM PROGRAM CEA2, FEBRUARY 5, 2004
                   BY  BONNIE MCBRIDE AND SANFORD GORDON
      REFS: NASA RP-1311, PART I, 1994 AND NASA RP-1311, PART II, 1996

 *******************************************************************************

  
 ### CEA analysis performed on Tue 06-Sep-2022 08:43:01
  
 # Problem Type: "Rocket" (Infinite Area Combustor)
  
 prob case=_______________8343 ro equilibrium
  
 # Pressure (20 values):
 p,psia= 50, 100, 150, 200, 250, 300, 350, 400, 450, 500, 550, 600, 650, 700, 750
 , 800, 850, 900, 950, 1000
  
 # Oxidizer/Fuel Wt. ratio (30 values):
 o/f= 0.75, 1, 1.25, 1.5, 1.75, 2, 2.25, 2.5, 2.75, 3, 3.25, 3.5, 3.75, 4, 4.25, 
 4.5, 4.75, 5, 5.25, 5.5, 5.75, 6, 6.25, 6.5, 6.75, 7
  
 # You selected the following fuels and oxidizers:
 reac
 fuel C3H8O,2propanol   wt%=100.0000  t,k= 295.000
 oxid N2O               wt%=100.0000  t,k= 295.000
  
 # You selected these options for output:
 # short version of output
 output short
 # Proportions of any products will be expressed as Mass Fractions.
 output massf
 # Heat will be expressed as siunits
 output siunits
 # Plot parameters:
 output plot mw cp t gam
  
  
 # Input prepared by this script:/var/www/sites/cearun.grc.nasa.gov/cgi-bin/CEARU
 N/prepareInputFile.cgi
  
 ### IMPORTANT:  The following line is the end of your CEA input file!
 end

              THEORETICAL ROCKET PERFORMANCE ASSUMING EQUILIBRIUM

           COMPOSITION DURING EXPANSION FROM INFINITE AREA COMBUSTOR

 Pin =    50.0 PSIA
 CASE = _______________

             REACTANT                    WT FRACTION      ENERGY      TEMP
                                          (SEE NOTE)     KJ/KG-MOL      K  
 FUEL        C3H8O,2propanol              1.0000000   -272981.086    295.000
 OXIDANT     N2O                          1.0000000     81926.923    295.000

 O/F=    0.75000  %FUEL= 57.142857  R,EQ.RATIO= 4.940592  PHI,EQ.RATIO= 8.788642

                 CHAMBER   THROAT
 Pinf/P            1.0000   1.7304
 P, BAR            3.4474   1.9922
 T, K             1027.39   977.42
 RHO, KG/CU M    7.0534-1 4.3541-1
 H, KJ/KG        -1797.95 -2057.26
 U, KJ/KG        -2286.70 -2514.81
 G, KJ/KG        -14213.9 -13869.4
 S, KJ/(KG)(K)    12.0850  12.0850

 M, (1/n)          17.478   17.762
 MW, MOL WT        14.314   14.279
 (dLV/dLP)t      -1.08765 -1.08743
 (dLV/dLT)p        2.2564   2.3137
 Cp, KJ/(KG)(K)   11.4928  12.2124
 GAMMAs            1.1404   1.1335
 SON VEL,M/SEC      746.6    720.2
 MACH NUMBER        0.000    1.000

 PERFORMANCE PARAMETERS

 Ae/At                      1.0000
 CSTAR, M/SEC               1099.4
 CF                         0.6550
 Ivac, M/SEC                1355.5
 Isp, M/SEC                  720.1

 MASS FRACTIONS

 CH4              0.05153  0.05017
 *CO              0.29386  0.25304
 *CO2             0.09585  0.11586
 *H2              0.05481  0.05406
 H2O              0.07925  0.08912
 NH3              0.00022  0.00018
 *N2              0.27259  0.27263
 C(gr)            0.15187  0.16493

  * THERMODYNAMIC PROPERTIES FITTED TO 20000.K

 NOTE. WEIGHT FRACTION OF FUEL IN TOTAL FUELS AND OF OXIDANT IN TOTAL OXIDANTS

              THEORETICAL ROCKET PERFORMANCE ASSUMING EQUILIBRIUM

           COMPOSITION DURING EXPANSION FROM INFINITE AREA COMBUSTOR

 Pin =   100.0 PSIA
 CASE = _______________

             REACTANT                    WT FRACTION      ENERGY      TEMP
                                          (SEE NOTE)     KJ/KG-MOL      K  
 FUEL        C3H8O,2propanol              1.0000000   -272981.086    295.000
 OXIDANT     N2O                          1.0000000     81926.923    295.000

 O/F=    0.75000  %FUEL= 57.142857  R,EQ.RATIO= 4.940592  PHI,EQ.RATIO= 8.788642

                 CHAMBER   THROAT
 Pinf/P            1.0000   1.7324
 P, BAR            6.8947   3.9799
 T, K             1065.78  1012.22
 RHO, KG/CU M    1.3822 0 8.5354-1
 H, KJ/KG        -1797.95 -2062.96
 U, KJ/KG        -2296.79 -2529.24
 G, KJ/KG        -14329.3 -13964.5
 S, KJ/(KG)(K)    11.7579  11.7579

 M, (1/n)          17.764   18.049
 MW, MOL WT        14.617   14.570
 (dLV/dLP)t      -1.09266 -1.09224
 (dLV/dLT)p        2.2642   2.3220
 Cp, KJ/(KG)(K)   10.9928  11.6880
 GAMMAs            1.1437   1.1367
 SON VEL,M/SEC      755.3    728.0
 MACH NUMBER        0.000    1.000

 PERFORMANCE PARAMETERS

 Ae/At                     1.00000
 CSTAR, M/SEC               1109.6
 CF                         0.6561
 Ivac, M/SEC                1368.5
 Isp, M/SEC                  728.0

 MASS FRACTIONS

 CH4              0.06307  0.06135
 *CO              0.29029  0.25020
 *CO2             0.09277  0.11172
 C2H6             0.00001  0.00000
 HCN              0.00001  0.00000
 *H2              0.05136  0.05065
 H2O              0.08407  0.09434
 NH3              0.00032  0.00026
 *N2              0.27251  0.27256
 C(gr)            0.14560  0.15891

  * THERMODYNAMIC PROPERTIES FITTED TO 20000.K

 NOTE. WEIGHT FRACTION OF FUEL IN TOTAL FUELS AND OF OXIDANT IN TOTAL OXIDANTS

              THEORETICAL ROCKET PERFORMANCE ASSUMING EQUILIBRIUM

           COMPOSITION DURING EXPANSION FROM INFINITE AREA COMBUSTOR

 Pin =   150.0 PSIA
 CASE = _______________

             REACTANT                    WT FRACTION      ENERGY      TEMP
                                          (SEE NOTE)     KJ/KG-MOL      K  
 FUEL        C3H8O,2propanol              1.0000000   -272981.086    295.000
 OXIDANT     N2O                          1.0000000     81926.923    295.000

 O/F=    0.75000  %FUEL= 57.142857  R,EQ.RATIO= 4.940592  PHI,EQ.RATIO= 8.788642

                 CHAMBER   THROAT
 Pinf/P            1.0000   1.7335
 P, BAR            10.342   5.9660
 T, K             1089.52  1033.70
 RHO, KG/CU M    2.0490 0 1.2656 0
 H, KJ/KG        -1797.95 -2066.29
 U, KJ/KG        -2302.70 -2537.69
 G, KJ/KG        -14402.6 -14025.2
 S, KJ/(KG)(K)    11.5690  11.5690

 M, (1/n)          17.947   18.232
 MW, MOL WT        14.815   14.761
 (dLV/dLP)t      -1.09510 -1.09457
 (dLV/dLT)p        2.2619   2.3197
 Cp, KJ/(KG)(K)   10.6701  11.3487
 GAMMAs            1.1455   1.1385
 SON VEL,M/SEC      760.4    732.6
 MACH NUMBER        0.000    1.000

 PERFORMANCE PARAMETERS

 Ae/At                      1.0000
 CSTAR, M/SEC               1115.5
 CF                         0.6568
 Ivac, M/SEC                1376.1
 Isp, M/SEC                  732.6

 MASS FRACTIONS

 CH4              0.07039  0.06844
 *CO              0.28811  0.24849
 *CO2             0.09121  0.10955
 C2H6             0.00001  0.00001
 HCN              0.00001  0.00000
 *H2              0.04920  0.04854
 H2O              0.08675  0.09721
 NH3              0.00040  0.00032
 *N2              0.27244  0.27251
 C(gr)            0.14148  0.15492

  * THERMODYNAMIC PROPERTIES FITTED TO 20000.K

 NOTE. WEIGHT FRACTION OF FUEL IN TOTAL FUELS AND OF OXIDANT IN TOTAL OXIDANTS

              THEORETICAL ROCKET PERFORMANCE ASSUMING EQUILIBRIUM

           COMPOSITION DURING EXPANSION FROM INFINITE AREA COMBUSTOR

 Pin =   200.0 PSIA
 CASE = _______________

             REACTANT                    WT FRACTION      ENERGY      TEMP
                                          (SEE NOTE)     KJ/KG-MOL      K  
 FUEL        C3H8O,2propanol              1.0000000   -272981.086    295.000
 OXIDANT     N2O                          1.0000000     81926.923    295.000

 O/F=    0.75000  %FUEL= 57.142857  R,EQ.RATIO= 4.940592  PHI,EQ.RATIO= 8.788642

                 CHAMBER   THROAT
 Pinf/P            1.0000   1.7343
 P, BAR            13.789   7.9512
 T, K             1106.92  1049.45
 RHO, KG/CU M    2.7095 0 1.6738 0
 H, KJ/KG        -1797.95 -2068.65
 U, KJ/KG        -2306.88 -2543.68
 G, KJ/KG        -14457.0 -14070.4
 S, KJ/(KG)(K)    11.4363  11.4363

 M, (1/n)          18.084   18.369
 MW, MOL WT        14.966   14.906
 (dLV/dLP)t      -1.09657 -1.09597
 (dLV/dLT)p        2.2569   2.3146
 Cp, KJ/(KG)(K)   10.4289  11.0944
 GAMMAs            1.1468   1.1397
 SON VEL,M/SEC      763.9    735.8
 MACH NUMBER        0.000    1.000

 PERFORMANCE PARAMETERS

 Ae/At                     1.00000
 CSTAR, M/SEC               1119.6
 CF                         0.6572
 Ivac, M/SEC                1381.4
 Isp, M/SEC                  735.8

 MASS FRACTIONS

 CH4              0.07580  0.07368
 *CO              0.28647  0.24721
 *CO2             0.09025  0.10816
 C2H6             0.00001  0.00001
 HCN              0.00001  0.00001
 *H2              0.04762  0.04699
 H2O              0.08859  0.09917
 NH3              0.00047  0.00037
 *N2              0.27239  0.27247
 C(gr)            0.13838  0.15192

  * THERMODYNAMIC PROPERTIES FITTED TO 20000.K

 NOTE. WEIGHT FRACTION OF FUEL IN TOTAL FUELS AND OF OXIDANT IN TOTAL OXIDANTS

              THEORETICAL ROCKET PERFORMANCE ASSUMING EQUILIBRIUM

           COMPOSITION DURING EXPANSION FROM INFINITE AREA COMBUSTOR

 Pin =   250.0 PSIA
 CASE = _______________

             REACTANT                    WT FRACTION      ENERGY      TEMP
                                          (SEE NOTE)     KJ/KG-MOL      K  
 FUEL        C3H8O,2propanol              1.0000000   -272981.086    295.000
 OXIDANT     N2O                          1.0000000     81926.923    295.000

 O/F=    0.75000  %FUEL= 57.142857  R,EQ.RATIO= 4.940592  PHI,EQ.RATIO= 8.788642

                 CHAMBER   THROAT
 Pinf/P            1.0000   1.7348
 P, BAR            17.237   9.9357
 T, K             1120.75  1061.95
 RHO, KG/CU M    3.3656 0 2.0793 0
 H, KJ/KG        -1797.95 -2070.47
 U, KJ/KG        -2310.10 -2548.31
 G, KJ/KG        -14500.5 -14106.6
 S, KJ/(KG)(K)    11.3340  11.3340

 M, (1/n)          18.195   18.478
 MW, MOL WT        15.088   15.023
 (dLV/dLP)t      -1.09755 -1.09689
 (dLV/dLT)p        2.2510   2.3086
 Cp, KJ/(KG)(K)   10.2355  10.8900
 GAMMAs            1.1477   1.1407
 SON VEL,M/SEC      766.7    738.3
 MACH NUMBER        0.000    1.000

 PERFORMANCE PARAMETERS

 Ae/At                      1.0000
 CSTAR, M/SEC               1122.8
 CF                         0.6575
 Ivac, M/SEC                1385.5
 Isp, M/SEC                  738.3

 MASS FRACTIONS

 CH4              0.08013  0.07787
 *CO              0.28512  0.24617
 *CO2             0.08959  0.10718
 C2H6             0.00001  0.00001
 HCN              0.00001  0.00001
 *H2              0.04637  0.04577
 H2O              0.09000  0.10065
 NH3              0.00052  0.00042
 *N2              0.27234  0.27243
 C(gr)            0.13590  0.14950

  * THERMODYNAMIC PROPERTIES FITTED TO 20000.K

 NOTE. WEIGHT FRACTION OF FUEL IN TOTAL FUELS AND OF OXIDANT IN TOTAL OXIDANTS

              THEORETICAL ROCKET PERFORMANCE ASSUMING EQUILIBRIUM

           COMPOSITION DURING EXPANSION FROM INFINITE AREA COMBUSTOR

 Pin =   300.0 PSIA
 CASE = _______________

             REACTANT                    WT FRACTION      ENERGY      TEMP
                                          (SEE NOTE)     KJ/KG-MOL      K  
 FUEL        C3H8O,2propanol              1.0000000   -272981.086    295.000
 OXIDANT     N2O                          1.0000000     81926.923    295.000

 O/F=    0.75000  %FUEL= 57.142857  R,EQ.RATIO= 4.940592  PHI,EQ.RATIO= 8.788642

                 CHAMBER   THROAT
 Pinf/P            1.0000   1.7353
 P, BAR            20.684   11.920
 T, K             1132.26  1072.35
 RHO, KG/CU M    4.0181 0 2.4827 0
 H, KJ/KG        -1797.95 -2071.95
 U, KJ/KG        -2312.73 -2552.07
 G, KJ/KG        -14536.8 -14136.8
 S, KJ/(KG)(K)    11.2509  11.2509

 M, (1/n)          18.288   18.570
 MW, MOL WT        15.192   15.122
 (dLV/dLP)t      -1.09823 -1.09753
 (dLV/dLT)p        2.2449   2.3024
 Cp, KJ/(KG)(K)   10.0737  10.7187
 GAMMAs            1.1484   1.1414
 SON VEL,M/SEC      768.9    740.3
 MACH NUMBER        0.000    1.000

 PERFORMANCE PARAMETERS

 Ae/At                      1.0000
 CSTAR, M/SEC               1125.5
 CF                         0.6578
 Ivac, M/SEC                1388.8
 Isp, M/SEC                  740.3

 MASS FRACTIONS

 CH4              0.08373  0.08135
 *CO              0.28397  0.24527
 *CO2             0.08911  0.10643
 C2H4             0.00001  0.00000
 C2H6             0.00002  0.00001
 HCN              0.00002  0.00001
 *H2              0.04533  0.04475
 H2O              0.09113  0.10183
 NH3              0.00057  0.00046
 *N2              0.27230  0.27240
 C(gr)            0.13382  0.14748

  * THERMODYNAMIC PROPERTIES FITTED TO 20000.K

 NOTE. WEIGHT FRACTION OF FUEL IN TOTAL FUELS AND OF OXIDANT IN TOTAL OXIDANTS

              THEORETICAL ROCKET PERFORMANCE ASSUMING EQUILIBRIUM

           COMPOSITION DURING EXPANSION FROM INFINITE AREA COMBUSTOR

 Pin =   350.0 PSIA
 CASE = _______________

             REACTANT                    WT FRACTION      ENERGY      TEMP
                                          (SEE NOTE)     KJ/KG-MOL      K  
 FUEL        C3H8O,2propanol              1.0000000   -272981.086    295.000
 OXIDANT     N2O                          1.0000000     81926.923    295.000

 O/F=    0.75000  %FUEL= 57.142857  R,EQ.RATIO= 4.940592  PHI,EQ.RATIO= 8.788642

                 CHAMBER   THROAT
 Pinf/P            1.0000   1.7357
 P, BAR            24.132   13.903
 T, K             1142.13  1081.27
 RHO, KG/CU M    4.6678 0 2.8843 0
 H, KJ/KG        -1797.95 -2073.20
 U, KJ/KG        -2314.94 -2555.24
 G, KJ/KG        -14568.0 -14162.8
 S, KJ/(KG)(K)    11.1809  11.1809

 M, (1/n)          18.369   18.650
 MW, MOL WT        15.282   15.208
 (dLV/dLP)t      -1.09873 -1.09799
 (dLV/dLT)p        2.2388   2.2961
 Cp, KJ/(KG)(K)    9.9345  10.5712
 GAMMAs            1.1490   1.1420
 SON VEL,M/SEC      770.7    742.0
 MACH NUMBER        0.000    1.000

 PERFORMANCE PARAMETERS

 Ae/At                     1.00000
 CSTAR, M/SEC               1127.7
 CF                         0.6580
 Ivac, M/SEC                1391.7
 Isp, M/SEC                  742.0

 MASS FRACTIONS

 CH4              0.08681  0.08434
 *CO              0.28295  0.24448
 *CO2             0.08875  0.10585
 C2H4             0.00001  0.00000
 C2H6             0.00002  0.00001
 HCN              0.00002  0.00001
 *H2              0.04444  0.04388
 H2O              0.09208  0.10282
 NH3              0.00062  0.00050
 *N2              0.27226  0.27237
 C(gr)            0.13204  0.14574

  * THERMODYNAMIC PROPERTIES FITTED TO 20000.K

 NOTE. WEIGHT FRACTION OF FUEL IN TOTAL FUELS AND OF OXIDANT IN TOTAL OXIDANTS

              THEORETICAL ROCKET PERFORMANCE ASSUMING EQUILIBRIUM

           COMPOSITION DURING EXPANSION FROM INFINITE AREA COMBUSTOR

 Pin =   400.0 PSIA
 CASE = _______________

             REACTANT                    WT FRACTION      ENERGY      TEMP
                                          (SEE NOTE)     KJ/KG-MOL      K  
 FUEL        C3H8O,2propanol              1.0000000   -272981.086    295.000
 OXIDANT     N2O                          1.0000000     81926.923    295.000

 O/F=    0.75000  %FUEL= 57.142857  R,EQ.RATIO= 4.940592  PHI,EQ.RATIO= 8.788642

                 CHAMBER   THROAT
 Pinf/P            1.0000   1.7360
 P, BAR            27.579   15.887
 T, K             1150.79  1089.09
 RHO, KG/CU M    5.3150 0 3.2844 0
 H, KJ/KG        -1797.95 -2074.27
 U, KJ/KG        -2316.84 -2557.98
 G, KJ/KG        -14595.4 -14185.7
 S, KJ/(KG)(K)    11.1206  11.1206

 M, (1/n)          18.440   18.721
 MW, MOL WT        15.362   15.285
 (dLV/dLP)t      -1.09909 -1.09832
 (dLV/dLT)p        2.2329   2.2900
 Cp, KJ/(KG)(K)    9.8124  10.4415
 GAMMAs            1.1494   1.1425
 SON VEL,M/SEC      772.3    743.4
 MACH NUMBER        0.000    1.000

 PERFORMANCE PARAMETERS

 Ae/At                      1.0000
 CSTAR, M/SEC               1129.5
 CF                         0.6581
 Ivac, M/SEC                1394.1
 Isp, M/SEC                  743.4

 MASS FRACTIONS

 CH4              0.08952  0.08696
 *CO              0.28203  0.24376
 *CO2             0.08847  0.10539
 C2H4             0.00001  0.00000
 C2H6             0.00002  0.00001
 HCN              0.00002  0.00001
 *H2              0.04366  0.04312
 H2O              0.09290  0.10366
 NH3              0.00066  0.00053
 *N2              0.27222  0.27234
 C(gr)            0.13048  0.14421

  * THERMODYNAMIC PROPERTIES FITTED TO 20000.K

 NOTE. WEIGHT FRACTION OF FUEL IN TOTAL FUELS AND OF OXIDANT IN TOTAL OXIDANTS

              THEORETICAL ROCKET PERFORMANCE ASSUMING EQUILIBRIUM

           COMPOSITION DURING EXPANSION FROM INFINITE AREA COMBUSTOR

 Pin =   450.0 PSIA
 CASE = _______________

             REACTANT                    WT FRACTION      ENERGY      TEMP
                                          (SEE NOTE)     KJ/KG-MOL      K  
 FUEL        C3H8O,2propanol              1.0000000   -272981.086    295.000
 OXIDANT     N2O                          1.0000000     81926.923    295.000

 O/F=    0.75000  %FUEL= 57.142857  R,EQ.RATIO= 4.940592  PHI,EQ.RATIO= 8.788642

                 CHAMBER   THROAT
 Pinf/P            1.0000   1.7362
 P, BAR            31.026   17.870
 T, K             1158.50  1096.07
 RHO, KG/CU M    5.9602 0 3.6832 0
 H, KJ/KG        -1797.95 -2075.21
 U, KJ/KG        -2318.51 -2560.38
 G, KJ/KG        -14619.8 -14206.1
 S, KJ/(KG)(K)    11.0676  11.0676

 M, (1/n)          18.504   18.784
 MW, MOL WT        15.434   15.354
 (dLV/dLP)t      -1.09936 -1.09857
 (dLV/dLT)p        2.2271   2.2841
 Cp, KJ/(KG)(K)    9.7036  10.3257
 GAMMAs            1.1498   1.1430
 SON VEL,M/SEC      773.7    744.7
 MACH NUMBER        0.000    1.000

 PERFORMANCE PARAMETERS

 Ae/At                     1.00000
 CSTAR, M/SEC               1131.2
 CF                         0.6583
 Ivac, M/SEC                1396.2
 Isp, M/SEC                  744.7

 MASS FRACTIONS

 CH4              0.09193  0.08929
 *CO              0.28118  0.24310
 *CO2             0.08826  0.10500
 C2H4             0.00001  0.00000
 C2H6             0.00003  0.00002
 HCN              0.00002  0.00001
 *H2              0.04296  0.04245
 H2O              0.09362  0.10440
 NH3              0.00070  0.00056
 *N2              0.27219  0.27231
 C(gr)            0.12910  0.14285

  * THERMODYNAMIC PROPERTIES FITTED TO 20000.K

 NOTE. WEIGHT FRACTION OF FUEL IN TOTAL FUELS AND OF OXIDANT IN TOTAL OXIDANTS

              THEORETICAL ROCKET PERFORMANCE ASSUMING EQUILIBRIUM

           COMPOSITION DURING EXPANSION FROM INFINITE AREA COMBUSTOR

 Pin =   500.0 PSIA
 CASE = _______________

             REACTANT                    WT FRACTION      ENERGY      TEMP
                                          (SEE NOTE)     KJ/KG-MOL      K  
 FUEL        C3H8O,2propanol              1.0000000   -272981.086    295.000
 OXIDANT     N2O                          1.0000000     81926.923    295.000

 O/F=    0.75000  %FUEL= 57.142857  R,EQ.RATIO= 4.940592  PHI,EQ.RATIO= 8.788642

                 CHAMBER   THROAT
 Pinf/P            1.0000   1.7365
 P, BAR            34.474   19.853
 T, K             1165.47  1102.36
 RHO, KG/CU M    6.6036 0 4.0809 0
 H, KJ/KG        -1797.95 -2076.05
 U, KJ/KG        -2320.00 -2562.52
 G, KJ/KG        -14641.8 -14224.4
 S, KJ/(KG)(K)    11.0203  11.0203

 M, (1/n)          18.562   18.841
 MW, MOL WT        15.500   15.416
 (dLV/dLP)t      -1.09957 -1.09874
 (dLV/dLT)p        2.2216   2.2784
 Cp, KJ/(KG)(K)    9.6054  10.2212
 GAMMAs            1.1502   1.1434
 SON VEL,M/SEC      774.9    745.8
 MACH NUMBER        0.000    1.000

 PERFORMANCE PARAMETERS

 Ae/At                      1.0000
 CSTAR, M/SEC               1132.7
 CF                         0.6584
 Ivac, M/SEC                1398.1
 Isp, M/SEC                  745.8

 MASS FRACTIONS

 CH4              0.09410  0.09139
 *CO              0.28040  0.24249
 *CO2             0.08809  0.10468
 C2H4             0.00001  0.00000
 C2H6             0.00003  0.00002
 HCN              0.00002  0.00001
 *H2              0.04234  0.04184
 H2O              0.09426  0.10505
 NH3              0.00074  0.00059
 *N2              0.27216  0.27229
 C(gr)            0.12785  0.14163

  * THERMODYNAMIC PROPERTIES FITTED TO 20000.K

 NOTE. WEIGHT FRACTION OF FUEL IN TOTAL FUELS AND OF OXIDANT IN TOTAL OXIDANTS

              THEORETICAL ROCKET PERFORMANCE ASSUMING EQUILIBRIUM

           COMPOSITION DURING EXPANSION FROM INFINITE AREA COMBUSTOR

 Pin =   550.0 PSIA
 CASE = _______________

             REACTANT                    WT FRACTION      ENERGY      TEMP
                                          (SEE NOTE)     KJ/KG-MOL      K  
 FUEL        C3H8O,2propanol              1.0000000   -272981.086    295.000
 OXIDANT     N2O                          1.0000000     81926.923    295.000

 O/F=    0.75000  %FUEL= 57.142857  R,EQ.RATIO= 4.940592  PHI,EQ.RATIO= 8.788642

                 CHAMBER   THROAT
 Pinf/P            1.0000   1.7367
 P, BAR            37.921   21.835
 T, K             1171.82  1108.10
 RHO, KG/CU M    7.2453 0 4.4777 0
 H, KJ/KG        -1797.95 -2076.80
 U, KJ/KG        -2321.34 -2564.45
 G, KJ/KG        -14661.8 -14241.2
 S, KJ/(KG)(K)    10.9777  10.9777

 M, (1/n)          18.615   18.893
 MW, MOL WT        15.560   15.473
 (dLV/dLP)t      -1.09972 -1.09887
 (dLV/dLT)p        2.2162   2.2729
 Cp, KJ/(KG)(K)    9.5161  10.1259
 GAMMAs            1.1505   1.1437
 SON VEL,M/SEC      776.0    746.8
 MACH NUMBER        0.000    1.000

 PERFORMANCE PARAMETERS

 Ae/At                      1.0000
 CSTAR, M/SEC               1134.0
 CF                         0.6585
 Ivac, M/SEC                1399.8
 Isp, M/SEC                  746.8

 MASS FRACTIONS

 CH4              0.09608  0.09330
 *CO              0.27967  0.24192
 *CO2             0.08796  0.10441
 C2H4             0.00001  0.00000
 C2H6             0.00003  0.00002
 HCN              0.00003  0.00001
 *H2              0.04177  0.04129
 H2O              0.09483  0.10564
 NH3              0.00078  0.00062
 *N2              0.27213  0.27226
 C(gr)            0.12671  0.14051

  * THERMODYNAMIC PROPERTIES FITTED TO 20000.K

 NOTE. WEIGHT FRACTION OF FUEL IN TOTAL FUELS AND OF OXIDANT IN TOTAL OXIDANTS

              THEORETICAL ROCKET PERFORMANCE ASSUMING EQUILIBRIUM

           COMPOSITION DURING EXPANSION FROM INFINITE AREA COMBUSTOR

 Pin =   600.0 PSIA
 CASE = _______________

             REACTANT                    WT FRACTION      ENERGY      TEMP
                                          (SEE NOTE)     KJ/KG-MOL      K  
 FUEL        C3H8O,2propanol              1.0000000   -272981.086    295.000
 OXIDANT     N2O                          1.0000000     81926.923    295.000

 O/F=    0.75000  %FUEL= 57.142857  R,EQ.RATIO= 4.940592  PHI,EQ.RATIO= 8.788642

                 CHAMBER   THROAT
 Pinf/P            1.0000   1.7369
 P, BAR            41.368   23.818
 T, K             1177.66  1113.38
 RHO, KG/CU M    7.8856 0 4.8735 0
 H, KJ/KG        -1797.95 -2077.49
 U, KJ/KG        -2322.56 -2566.20
 G, KJ/KG        -14680.2 -14256.6
 S, KJ/(KG)(K)    10.9389  10.9389

 M, (1/n)          18.665   18.942
 MW, MOL WT        15.615   15.526
 (dLV/dLP)t      -1.09982 -1.09896
 (dLV/dLT)p        2.2111   2.2675
 Cp, KJ/(KG)(K)    9.4340  10.0383
 GAMMAs            1.1508   1.1440
 SON VEL,M/SEC      777.0    747.7
 MACH NUMBER        0.000    1.000

 PERFORMANCE PARAMETERS

 Ae/At                      1.0000
 CSTAR, M/SEC               1135.2
 CF                         0.6586
 Ivac, M/SEC                1401.3
 Isp, M/SEC                  747.7

 MASS FRACTIONS

 CH4              0.09789  0.09505
 *CO              0.27899  0.24138
 *CO2             0.08785  0.10419
 C2H4             0.00001  0.00000
 C2H6             0.00004  0.00002
 HCN              0.00003  0.00001
 *H2              0.04125  0.04078
 H2O              0.09536  0.10617
 NH3              0.00081  0.00065
 *N2              0.27210  0.27224
 C(gr)            0.12567  0.13949

  * THERMODYNAMIC PROPERTIES FITTED TO 20000.K

 NOTE. WEIGHT FRACTION OF FUEL IN TOTAL FUELS AND OF OXIDANT IN TOTAL OXIDANTS

              THEORETICAL ROCKET PERFORMANCE ASSUMING EQUILIBRIUM

           COMPOSITION DURING EXPANSION FROM INFINITE AREA COMBUSTOR

 Pin =   650.0 PSIA
 CASE = _______________

             REACTANT                    WT FRACTION      ENERGY      TEMP
                                          (SEE NOTE)     KJ/KG-MOL      K  
 FUEL        C3H8O,2propanol              1.0000000   -272981.086    295.000
 OXIDANT     N2O                          1.0000000     81926.923    295.000

 O/F=    0.75000  %FUEL= 57.142857  R,EQ.RATIO= 4.940592  PHI,EQ.RATIO= 8.788642

                 CHAMBER   THROAT
 Pinf/P            1.0000   1.7370
 P, BAR            44.816   25.800
 T, K             1183.07  1118.26
 RHO, KG/CU M    8.5246 0 5.2686 0
 H, KJ/KG        -1797.95 -2078.12
 U, KJ/KG        -2323.67 -2567.81
 G, KJ/KG        -14697.3 -14270.9
 S, KJ/(KG)(K)    10.9033  10.9033

 M, (1/n)          18.711   18.987
 MW, MOL WT        15.667   15.576
 (dLV/dLP)t      -1.09990 -1.09902
 (dLV/dLT)p        2.2061   2.2624
 Cp, KJ/(KG)(K)    9.3582   9.9573
 GAMMAs            1.1510   1.1443
 SON VEL,M/SEC      777.9    748.6
 MACH NUMBER        0.000    1.000

 PERFORMANCE PARAMETERS

 Ae/At                      1.0000
 CSTAR, M/SEC               1136.4
 CF                         0.6587
 Ivac, M/SEC                1402.7
 Isp, M/SEC                  748.6

 MASS FRACTIONS

 CH4              0.09956  0.09667
 *CO              0.27834  0.24087
 *CO2             0.08777  0.10399
 C2H4             0.00001  0.00001
 C2H6             0.00004  0.00002
 HCN              0.00003  0.00001
 *H2              0.04077  0.04032
 H2O              0.09584  0.10666
 NH3              0.00084  0.00067
 *N2              0.27207  0.27222
 C(gr)            0.12472  0.13855

  * THERMODYNAMIC PROPERTIES FITTED TO 20000.K

 NOTE. WEIGHT FRACTION OF FUEL IN TOTAL FUELS AND OF OXIDANT IN TOTAL OXIDANTS

              THEORETICAL ROCKET PERFORMANCE ASSUMING EQUILIBRIUM

           COMPOSITION DURING EXPANSION FROM INFINITE AREA COMBUSTOR

 Pin =   700.0 PSIA
 CASE = _______________

             REACTANT                    WT FRACTION      ENERGY      TEMP
                                          (SEE NOTE)     KJ/KG-MOL      K  
 FUEL        C3H8O,2propanol              1.0000000   -272981.086    295.000
 OXIDANT     N2O                          1.0000000     81926.923    295.000

 O/F=    0.75000  %FUEL= 57.142857  R,EQ.RATIO= 4.940592  PHI,EQ.RATIO= 8.788642

                 CHAMBER   THROAT
 Pinf/P            1.0000   1.7372
 P, BAR            48.263   27.782
 T, K             1188.10  1122.81
 RHO, KG/CU M    9.1625 0 5.6629 0
 H, KJ/KG        -1797.95 -2078.69
 U, KJ/KG        -2324.70 -2569.29
 G, KJ/KG        -14713.1 -14284.1
 S, KJ/(KG)(K)    10.8704  10.8704

 M, (1/n)          18.754   19.029
 MW, MOL WT        15.715   15.622
 (dLV/dLP)t      -1.09995 -1.09906
 (dLV/dLT)p        2.2013   2.2574
 Cp, KJ/(KG)(K)    9.2878   9.8820
 GAMMAs            1.1512   1.1445
 SON VEL,M/SEC      778.7    749.3
 MACH NUMBER        0.000    1.000

 PERFORMANCE PARAMETERS

 Ae/At                      1.0000
 CSTAR, M/SEC               1137.4
 CF                         0.6588
 Ivac, M/SEC                1404.0
 Isp, M/SEC                  749.3

 MASS FRACTIONS

 CH4              0.10112  0.09818
 *CO              0.27772  0.24039
 *CO2             0.08771  0.10382
 C2H4             0.00001  0.00001
 C2H6             0.00004  0.00003
 HCN              0.00003  0.00001
 *H2              0.04032  0.03988
 H2O              0.09629  0.10711
 NH3              0.00087  0.00070
 *N2              0.27204  0.27220
 C(gr)            0.12383  0.13767

  * THERMODYNAMIC PROPERTIES FITTED TO 20000.K

 NOTE. WEIGHT FRACTION OF FUEL IN TOTAL FUELS AND OF OXIDANT IN TOTAL OXIDANTS

              THEORETICAL ROCKET PERFORMANCE ASSUMING EQUILIBRIUM

           COMPOSITION DURING EXPANSION FROM INFINITE AREA COMBUSTOR

 Pin =   750.0 PSIA
 CASE = _______________

             REACTANT                    WT FRACTION      ENERGY      TEMP
                                          (SEE NOTE)     KJ/KG-MOL      K  
 FUEL        C3H8O,2propanol              1.0000000   -272981.086    295.000
 OXIDANT     N2O                          1.0000000     81926.923    295.000

 O/F=    0.75000  %FUEL= 57.142857  R,EQ.RATIO= 4.940592  PHI,EQ.RATIO= 8.788642

                 CHAMBER   THROAT
 Pinf/P            1.0000   1.7373
 P, BAR            51.710   29.764
 T, K             1192.81  1127.07
 RHO, KG/CU M    9.7992 0 6.0566 0
 H, KJ/KG        -1797.95 -2079.23
 U, KJ/KG        -2325.65 -2570.67
 G, KJ/KG        -14727.9 -14296.5
 S, KJ/(KG)(K)    10.8398  10.8398

 M, (1/n)          18.794   19.069
 MW, MOL WT        15.761   15.665
 (dLV/dLP)t      -1.09998 -1.09907
 (dLV/dLT)p        2.1967   2.2526
 Cp, KJ/(KG)(K)    9.2220   9.8115
 GAMMAs            1.1514   1.1447
 SON VEL,M/SEC      779.5    750.0
 MACH NUMBER        0.000    1.000

 PERFORMANCE PARAMETERS

 Ae/At                      1.0000
 CSTAR, M/SEC               1138.3
 CF                         0.6589
 Ivac, M/SEC                1405.3
 Isp, M/SEC                  750.0

 MASS FRACTIONS

 CH4              0.10257  0.09958
 *CO              0.27714  0.23993
 *CO2             0.08766  0.10367
 C2H4             0.00001  0.00001
 C2H6             0.00005  0.00003
 HCN              0.00003  0.00001
 *H2              0.03990  0.03948
 H2O              0.09671  0.10753
 NH3              0.00090  0.00072
 *N2              0.27202  0.27218
 C(gr)            0.12300  0.13685

  * THERMODYNAMIC PROPERTIES FITTED TO 20000.K

 NOTE. WEIGHT FRACTION OF FUEL IN TOTAL FUELS AND OF OXIDANT IN TOTAL OXIDANTS

              THEORETICAL ROCKET PERFORMANCE ASSUMING EQUILIBRIUM

           COMPOSITION DURING EXPANSION FROM INFINITE AREA COMBUSTOR

 Pin =   800.0 PSIA
 CASE = _______________

             REACTANT                    WT FRACTION      ENERGY      TEMP
                                          (SEE NOTE)     KJ/KG-MOL      K  
 FUEL        C3H8O,2propanol              1.0000000   -272981.086    295.000
 OXIDANT     N2O                          1.0000000     81926.923    295.000

 O/F=    0.75000  %FUEL= 57.142857  R,EQ.RATIO= 4.940592  PHI,EQ.RATIO= 8.788642

                 CHAMBER   THROAT
 Pinf/P            1.0000   1.7375
 P, BAR            55.158   31.746
 T, K             1197.24  1131.07
 RHO, KG/CU M    1.0435 1 6.4496 0
 H, KJ/KG        -1797.95 -2079.73
 U, KJ/KG        -2326.54 -2571.95
 G, KJ/KG        -14741.7 -14308.1
 S, KJ/(KG)(K)    10.8113  10.8113

 M, (1/n)          18.832   19.106
 MW, MOL WT        15.803   15.706
 (dLV/dLP)t      -1.09999 -1.09907
 (dLV/dLT)p        2.1922   2.2480
 Cp, KJ/(KG)(K)    9.1603   9.7454
 GAMMAs            1.1516   1.1449
 SON VEL,M/SEC      780.2    750.7
 MACH NUMBER        0.000    1.000

 PERFORMANCE PARAMETERS

 Ae/At                     1.00000
 CSTAR, M/SEC               1139.2
 CF                         0.6590
 Ivac, M/SEC                1406.4
 Isp, M/SEC                  750.7

 MASS FRACTIONS

 CH4              0.10393  0.10090
 *CO              0.27658  0.23948
 *CO2             0.08762  0.10355
 C2H4             0.00001  0.00001
 C2H6             0.00005  0.00003
 HCN              0.00003  0.00002
 *H2              0.03951  0.03910
 H2O              0.09710  0.10792
 NH3              0.00093  0.00074
 *N2              0.27199  0.27216
 C(gr)            0.12223  0.13609

  * THERMODYNAMIC PROPERTIES FITTED TO 20000.K

 NOTE. WEIGHT FRACTION OF FUEL IN TOTAL FUELS AND OF OXIDANT IN TOTAL OXIDANTS

              THEORETICAL ROCKET PERFORMANCE ASSUMING EQUILIBRIUM

           COMPOSITION DURING EXPANSION FROM INFINITE AREA COMBUSTOR

 Pin =   850.0 PSIA
 CASE = _______________

             REACTANT                    WT FRACTION      ENERGY      TEMP
                                          (SEE NOTE)     KJ/KG-MOL      K  
 FUEL        C3H8O,2propanol              1.0000000   -272981.086    295.000
 OXIDANT     N2O                          1.0000000     81926.923    295.000

 O/F=    0.75000  %FUEL= 57.142857  R,EQ.RATIO= 4.940592  PHI,EQ.RATIO= 8.788642

                 CHAMBER   THROAT
 Pinf/P            1.0000   1.7376
 P, BAR            58.605   33.728
 T, K             1201.42  1134.85
 RHO, KG/CU M    1.1070 1 6.8420 0
 H, KJ/KG        -1797.95 -2080.19
 U, KJ/KG        -2327.37 -2573.15
 G, KJ/KG        -14754.8 -14319.1
 S, KJ/(KG)(K)    10.7846  10.7846

 M, (1/n)          18.868   19.141
 MW, MOL WT        15.844   15.745
 (dLV/dLP)t      -1.09998 -1.09906
 (dLV/dLT)p        2.1879   2.2435
 Cp, KJ/(KG)(K)    9.1023   9.6832
 GAMMAs            1.1518   1.1451
 SON VEL,M/SEC      780.9    751.3
 MACH NUMBER        0.000    1.000

 PERFORMANCE PARAMETERS

 Ae/At                      1.0000
 CSTAR, M/SEC               1140.1
 CF                         0.6590
 Ivac, M/SEC                1407.4
 Isp, M/SEC                  751.3

 MASS FRACTIONS

 CH4              0.10521  0.10214
 *CO              0.27604  0.23906
 *CO2             0.08760  0.10344
 C2H4             0.00001  0.00001
 C2H6             0.00005  0.00003
 HCN              0.00003  0.00002
 *H2              0.03914  0.03874
 H2O              0.09746  0.10828
 NH3              0.00096  0.00076
 *N2              0.27197  0.27214
 C(gr)            0.12150  0.13537

  * THERMODYNAMIC PROPERTIES FITTED TO 20000.K

 NOTE. WEIGHT FRACTION OF FUEL IN TOTAL FUELS AND OF OXIDANT IN TOTAL OXIDANTS

              THEORETICAL ROCKET PERFORMANCE ASSUMING EQUILIBRIUM

           COMPOSITION DURING EXPANSION FROM INFINITE AREA COMBUSTOR

 Pin =   900.0 PSIA
 CASE = _______________

             REACTANT                    WT FRACTION      ENERGY      TEMP
                                          (SEE NOTE)     KJ/KG-MOL      K  
 FUEL        C3H8O,2propanol              1.0000000   -272981.086    295.000
 OXIDANT     N2O                          1.0000000     81926.923    295.000

 O/F=    0.75000  %FUEL= 57.142857  R,EQ.RATIO= 4.940592  PHI,EQ.RATIO= 8.788642

                 CHAMBER   THROAT
 Pinf/P            1.0000   1.7377
 P, BAR            62.053   35.710
 T, K             1205.38  1138.43
 RHO, KG/CU M    1.1704 1 7.2339 0
 H, KJ/KG        -1797.95 -2080.63
 U, KJ/KG        -2328.15 -2574.28
 G, KJ/KG        -14767.1 -14329.4
 S, KJ/(KG)(K)    10.7594  10.7594

 M, (1/n)          18.903   19.175
 MW, MOL WT        15.883   15.781
 (dLV/dLP)t      -1.09997 -1.09903
 (dLV/dLT)p        2.1837   2.2392
 Cp, KJ/(KG)(K)    9.0474   9.6243
 GAMMAs            1.1519   1.1453
 SON VEL,M/SEC      781.5    751.9
 MACH NUMBER        0.000    1.000

 PERFORMANCE PARAMETERS

 Ae/At                     1.00000
 CSTAR, M/SEC               1140.8
 CF                         0.6591
 Ivac, M/SEC                1408.4
 Isp, M/SEC                  751.9

 MASS FRACTIONS

 CH4              0.10642  0.10331
 *CO              0.27552  0.23865
 *CO2             0.08758  0.10334
 C2H4             0.00002  0.00001
 C2H6             0.00005  0.00003
 HCN              0.00004  0.00002
 *H2              0.03879  0.03841
 H2O              0.09781  0.10863
 NH3              0.00098  0.00079
 *N2              0.27195  0.27212
 C(gr)            0.12082  0.13469

  * THERMODYNAMIC PROPERTIES FITTED TO 20000.K

 NOTE. WEIGHT FRACTION OF FUEL IN TOTAL FUELS AND OF OXIDANT IN TOTAL OXIDANTS

              THEORETICAL ROCKET PERFORMANCE ASSUMING EQUILIBRIUM

           COMPOSITION DURING EXPANSION FROM INFINITE AREA COMBUSTOR

 Pin =   950.0 PSIA
 CASE = _______________

             REACTANT                    WT FRACTION      ENERGY      TEMP
                                          (SEE NOTE)     KJ/KG-MOL      K  
 FUEL        C3H8O,2propanol              1.0000000   -272981.086    295.000
 OXIDANT     N2O                          1.0000000     81926.923    295.000

 O/F=    0.75000  %FUEL= 57.142857  R,EQ.RATIO= 4.940592  PHI,EQ.RATIO= 8.788642

                 CHAMBER   THROAT
 Pinf/P            1.0000   1.7378
 P, BAR            65.500   37.691
 T, K             1209.14  1141.82
 RHO, KG/CU M    1.2337 1 7.6253 0
 H, KJ/KG        -1797.95 -2081.04
 U, KJ/KG        -2328.89 -2575.34
 G, KJ/KG        -14778.8 -14339.3
 S, KJ/(KG)(K)    10.7356  10.7356

 M, (1/n)          18.935   19.207
 MW, MOL WT        15.919   15.816
 (dLV/dLP)t      -1.09994 -1.09900
 (dLV/dLT)p        2.1797   2.2350
 Cp, KJ/(KG)(K)    8.9955   9.5685
 GAMMAs            1.1520   1.1455
 SON VEL,M/SEC      782.1    752.5
 MACH NUMBER        0.000    1.000

 PERFORMANCE PARAMETERS

 Ae/At                      1.0000
 CSTAR, M/SEC               1141.6
 CF                         0.6591
 Ivac, M/SEC                1409.4
 Isp, M/SEC                  752.5

 MASS FRACTIONS

 CH4              0.10757  0.10442
 *CO              0.27502  0.23825
 *CO2             0.08757  0.10325
 C2H4             0.00002  0.00001
 C2H6             0.00006  0.00004
 HCN              0.00004  0.00002
 HNCO             0.00001  0.00000
 *H2              0.03846  0.03809
 H2O              0.09814  0.10895
 NH3              0.00101  0.00081
 *N2              0.27193  0.27211
 C(gr)            0.12017  0.13405

  * THERMODYNAMIC PROPERTIES FITTED TO 20000.K

 NOTE. WEIGHT FRACTION OF FUEL IN TOTAL FUELS AND OF OXIDANT IN TOTAL OXIDANTS

              THEORETICAL ROCKET PERFORMANCE ASSUMING EQUILIBRIUM

           COMPOSITION DURING EXPANSION FROM INFINITE AREA COMBUSTOR

 Pin =  1000.0 PSIA
 CASE = _______________

             REACTANT                    WT FRACTION      ENERGY      TEMP
                                          (SEE NOTE)     KJ/KG-MOL      K  
 FUEL        C3H8O,2propanol              1.0000000   -272981.086    295.000
 OXIDANT     N2O                          1.0000000     81926.923    295.000

 O/F=    0.75000  %FUEL= 57.142857  R,EQ.RATIO= 4.940592  PHI,EQ.RATIO= 8.788642

                 CHAMBER   THROAT
 Pinf/P            1.0000   1.7379
 P, BAR            68.947   39.673
 T, K             1212.72  1145.06
 RHO, KG/CU M    1.2969 1 8.0162 0
 H, KJ/KG        -1797.95 -2081.43
 U, KJ/KG        -2329.58 -2576.34
 G, KJ/KG        -14790.0 -14348.6
 S, KJ/(KG)(K)    10.7131  10.7131

 M, (1/n)          18.966   19.237
 MW, MOL WT        15.954   15.850
 (dLV/dLP)t      -1.09991 -1.09895
 (dLV/dLT)p        2.1758   2.2309
 Cp, KJ/(KG)(K)    8.9461   9.5155
 GAMMAs            1.1522   1.1456
 SON VEL,M/SEC      782.6    753.0
 MACH NUMBER        0.000    1.000

 PERFORMANCE PARAMETERS

 Ae/At                     1.00000
 CSTAR, M/SEC               1142.3
 CF                         0.6592
 Ivac, M/SEC                1410.2
 Isp, M/SEC                  753.0

 MASS FRACTIONS

 CH4              0.10866  0.10548
 *CO              0.27454  0.23787
 *CO2             0.08757  0.10318
 C2H4             0.00002  0.00001
 C2H6             0.00006  0.00004
 HCN              0.00004  0.00002
 HNCO             0.00001  0.00000
 *H2              0.03815  0.03778
 H2O              0.09845  0.10926
 NH3              0.00103  0.00083
 *N2              0.27191  0.27209
 C(gr)            0.11956  0.13344

  * THERMODYNAMIC PROPERTIES FITTED TO 20000.K

 NOTE. WEIGHT FRACTION OF FUEL IN TOTAL FUELS AND OF OXIDANT IN TOTAL OXIDANTS

              THEORETICAL ROCKET PERFORMANCE ASSUMING EQUILIBRIUM

           COMPOSITION DURING EXPANSION FROM INFINITE AREA COMBUSTOR

 Pin =    50.0 PSIA
 CASE = _______________

             REACTANT                    WT FRACTION      ENERGY      TEMP
                                          (SEE NOTE)     KJ/KG-MOL      K  
 FUEL        C3H8O,2propanol              1.0000000   -272981.086    295.000
 OXIDANT     N2O                          1.0000000     81926.923    295.000

 O/F=    1.00000  %FUEL= 50.000000  R,EQ.RATIO= 4.227617  PHI,EQ.RATIO= 6.591481

                 CHAMBER   THROAT
 Pinf/P            1.0000   1.7367
 P, BAR            3.4474   1.9850
 T, K             1081.73  1024.12
 RHO, KG/CU M    6.5589-1 4.0589-1
 H, KJ/KG        -1340.53 -1620.33
 U, KJ/KG        -1866.13 -2109.37
 G, KJ/KG        -14614.9 -14187.7
 S, KJ/(KG)(K)    12.2714  12.2714

 M, (1/n)          17.112   17.412
 MW, MOL WT        15.168   15.159
 (dLV/dLP)t      -1.06723 -1.07227
 (dLV/dLT)p        1.9499   2.0918
 Cp, KJ/(KG)(K)    9.1101  10.5346
 GAMMAs            1.1568   1.1443
 SON VEL,M/SEC      779.8    748.1
 MACH NUMBER        0.000    1.000

 PERFORMANCE PARAMETERS

 Ae/At                      1.0000
 CSTAR, M/SEC               1135.4
 CF                         0.6589
 Ivac, M/SEC                1401.8
 Isp, M/SEC                  748.1

 MASS FRACTIONS

 CH4              0.02939  0.02907
 *CO              0.39781  0.35488
 *CO2             0.06325  0.08546
 HCN              0.00001  0.00000
 *H2              0.05442  0.05346
 H2O              0.04691  0.05633
 NH3              0.00017  0.00014
 *N2              0.31810  0.31813
 C(gr)            0.08994  0.10253

  * THERMODYNAMIC PROPERTIES FITTED TO 20000.K

 NOTE. WEIGHT FRACTION OF FUEL IN TOTAL FUELS AND OF OXIDANT IN TOTAL OXIDANTS

              THEORETICAL ROCKET PERFORMANCE ASSUMING EQUILIBRIUM

           COMPOSITION DURING EXPANSION FROM INFINITE AREA COMBUSTOR

 Pin =   100.0 PSIA
 CASE = _______________

             REACTANT                    WT FRACTION      ENERGY      TEMP
                                          (SEE NOTE)     KJ/KG-MOL      K  
 FUEL        C3H8O,2propanol              1.0000000   -272981.086    295.000
 OXIDANT     N2O                          1.0000000     81926.923    295.000

 O/F=    1.00000  %FUEL= 50.000000  R,EQ.RATIO= 4.227617  PHI,EQ.RATIO= 6.591481

                 CHAMBER   THROAT
 Pinf/P            1.0000   1.7388
 P, BAR            6.8947   3.9652
 T, K             1121.28  1059.92
 RHO, KG/CU M    1.2835 0 7.9450-1
 H, KJ/KG        -1340.53 -1626.91
 U, KJ/KG        -1877.73 -2125.99
 G, KJ/KG        -14725.2 -14279.1
 S, KJ/(KG)(K)    11.9369  11.9369

 M, (1/n)          17.355   17.658
 MW, MOL WT        15.416   15.398
 (dLV/dLP)t      -1.07391 -1.07840
 (dLV/dLT)p        1.9894   2.1238
 Cp, KJ/(KG)(K)    8.9548  10.2585
 GAMMAs            1.1599   1.1476
 SON VEL,M/SEC      789.4    756.8
 MACH NUMBER        0.000    1.000

 PERFORMANCE PARAMETERS

 Ae/At                      1.0000
 CSTAR, M/SEC               1146.7
 CF                         0.6600
 Ivac, M/SEC                1416.3
 Isp, M/SEC                  756.8

 MASS FRACTIONS

 CH4              0.03785  0.03725
 *CO              0.38979  0.34748
 *CO2             0.06333  0.08449
 HCN              0.00002  0.00001
 *H2              0.05171  0.05077
 H2O              0.05199  0.06189
 NH3              0.00025  0.00020
 *N2              0.31802  0.31807
 C(gr)            0.08702  0.09984

  * THERMODYNAMIC PROPERTIES FITTED TO 20000.K

 NOTE. WEIGHT FRACTION OF FUEL IN TOTAL FUELS AND OF OXIDANT IN TOTAL OXIDANTS

              THEORETICAL ROCKET PERFORMANCE ASSUMING EQUILIBRIUM

           COMPOSITION DURING EXPANSION FROM INFINITE AREA COMBUSTOR

 Pin =   150.0 PSIA
 CASE = _______________

             REACTANT                    WT FRACTION      ENERGY      TEMP
                                          (SEE NOTE)     KJ/KG-MOL      K  
 FUEL        C3H8O,2propanol              1.0000000   -272981.086    295.000
 OXIDANT     N2O                          1.0000000     81926.923    295.000

 O/F=    1.00000  %FUEL= 50.000000  R,EQ.RATIO= 4.227617  PHI,EQ.RATIO= 6.591481

                 CHAMBER   THROAT
 Pinf/P            1.0000   1.7400
 P, BAR            10.342   5.9437
 T, K             1145.90  1082.16
 RHO, KG/CU M    1.9009 0 1.1769 0
 H, KJ/KG        -1340.53 -1630.81
 U, KJ/KG        -1884.59 -2135.82
 G, KJ/KG        -14797.5 -14339.2
 S, KJ/(KG)(K)    11.7435  11.7435

 M, (1/n)          17.512   17.816
 MW, MOL WT        15.585   15.560
 (dLV/dLP)t      -1.07763 -1.08178
 (dLV/dLT)p        2.0076   2.1376
 Cp, KJ/(KG)(K)    8.8274  10.0633
 GAMMAs            1.1616   1.1496
 SON VEL,M/SEC      795.0    761.9
 MACH NUMBER        0.000    1.000

 PERFORMANCE PARAMETERS

 Ae/At                      1.0000
 CSTAR, M/SEC               1153.3
 CF                         0.6607
 Ivac, M/SEC                1424.7
 Isp, M/SEC                  761.9

 MASS FRACTIONS

 CH4              0.04346  0.04266
 *CO              0.38518  0.34326
 *CO2             0.06337  0.08391
 HCN              0.00002  0.00001
 *H2              0.04996  0.04904
 H2O              0.05493  0.06507
 NH3              0.00032  0.00026
 *N2              0.31797  0.31802
 C(gr)            0.08478  0.09775

  * THERMODYNAMIC PROPERTIES FITTED TO 20000.K

 NOTE. WEIGHT FRACTION OF FUEL IN TOTAL FUELS AND OF OXIDANT IN TOTAL OXIDANTS

              THEORETICAL ROCKET PERFORMANCE ASSUMING EQUILIBRIUM

           COMPOSITION DURING EXPANSION FROM INFINITE AREA COMBUSTOR

 Pin =   200.0 PSIA
 CASE = _______________

             REACTANT                    WT FRACTION      ENERGY      TEMP
                                          (SEE NOTE)     KJ/KG-MOL      K  
 FUEL        C3H8O,2propanol              1.0000000   -272981.086    295.000
 OXIDANT     N2O                          1.0000000     81926.923    295.000

 O/F=    1.00000  %FUEL= 50.000000  R,EQ.RATIO= 4.227617  PHI,EQ.RATIO= 6.591481

                 CHAMBER   THROAT
 Pinf/P            1.0000   1.7408
 P, BAR            13.789   7.9212
 T, K             1164.05  1098.53
 RHO, KG/CU M    2.5120 0 1.5555 0
 H, KJ/KG        -1340.53 -1633.58
 U, KJ/KG        -1889.47 -2142.82
 G, KJ/KG        -14852.1 -14384.6
 S, KJ/(KG)(K)    11.6074  11.6074

 M, (1/n)          17.631   17.936
 MW, MOL WT        15.717   15.686
 (dLV/dLP)t      -1.08013 -1.08403
 (dLV/dLT)p        2.0179   2.1447
 Cp, KJ/(KG)(K)    8.7208   9.9097
 GAMMAs            1.1629   1.1509
 SON VEL,M/SEC      799.0    765.6
 MACH NUMBER        0.000    1.000

 PERFORMANCE PARAMETERS

 Ae/At                      1.0000
 CSTAR, M/SEC               1158.0
 CF                         0.6611
 Ivac, M/SEC                1430.7
 Isp, M/SEC                  765.6

 MASS FRACTIONS

 CH4              0.04773  0.04678
 *CO              0.38190  0.34029
 *CO2             0.06341  0.08353
 C2H6             0.00001  0.00000
 HCN              0.00003  0.00001
 *H2              0.04864  0.04775
 H2O              0.05700  0.06730
 NH3              0.00038  0.00030
 *N2              0.31792  0.31799
 C(gr)            0.08297  0.09605

  * THERMODYNAMIC PROPERTIES FITTED TO 20000.K

 NOTE. WEIGHT FRACTION OF FUEL IN TOTAL FUELS AND OF OXIDANT IN TOTAL OXIDANTS

              THEORETICAL ROCKET PERFORMANCE ASSUMING EQUILIBRIUM

           COMPOSITION DURING EXPANSION FROM INFINITE AREA COMBUSTOR

 Pin =   250.0 PSIA
 CASE = _______________

             REACTANT                    WT FRACTION      ENERGY      TEMP
                                          (SEE NOTE)     KJ/KG-MOL      K  
 FUEL        C3H8O,2propanol              1.0000000   -272981.086    295.000
 OXIDANT     N2O                          1.0000000     81926.923    295.000

 O/F=    1.00000  %FUEL= 50.000000  R,EQ.RATIO= 4.227617  PHI,EQ.RATIO= 6.591481

                 CHAMBER   THROAT
 Pinf/P            1.0000   1.7415
 P, BAR            17.237   9.8978
 T, K             1178.52  1111.56
 RHO, KG/CU M    3.1185 0 1.9312 0
 H, KJ/KG        -1340.53 -1635.73
 U, KJ/KG        -1893.26 -2148.26
 G, KJ/KG        -14896.4 -14421.4
 S, KJ/(KG)(K)    11.5025  11.5025

 M, (1/n)          17.728   18.033
 MW, MOL WT        15.825   15.790
 (dLV/dLP)t      -1.08197 -1.08568
 (dLV/dLT)p        2.0242   2.1486
 Cp, KJ/(KG)(K)    8.6293   9.7820
 GAMMAs            1.1638   1.1520
 SON VEL,M/SEC      802.0    768.4
 MACH NUMBER        0.000    1.000

 PERFORMANCE PARAMETERS

 Ae/At                      1.0000
 CSTAR, M/SEC               1161.6
 CF                         0.6615
 Ivac, M/SEC                1435.4
 Isp, M/SEC                  768.4

 MASS FRACTIONS

 CH4              0.05121  0.05011
 *CO              0.37934  0.33799
 *CO2             0.06347  0.08326
 C2H4             0.00001  0.00000
 C2H6             0.00001  0.00001
 HCN              0.00003  0.00001
 *H2              0.04758  0.04671
 H2O              0.05860  0.06900
 NH3              0.00043  0.00034
 *N2              0.31787  0.31795
 C(gr)            0.08144  0.09461

  * THERMODYNAMIC PROPERTIES FITTED TO 20000.K

 NOTE. WEIGHT FRACTION OF FUEL IN TOTAL FUELS AND OF OXIDANT IN TOTAL OXIDANTS

              THEORETICAL ROCKET PERFORMANCE ASSUMING EQUILIBRIUM

           COMPOSITION DURING EXPANSION FROM INFINITE AREA COMBUSTOR

 Pin =   300.0 PSIA
 CASE = _______________

             REACTANT                    WT FRACTION      ENERGY      TEMP
                                          (SEE NOTE)     KJ/KG-MOL      K  
 FUEL        C3H8O,2propanol              1.0000000   -272981.086    295.000
 OXIDANT     N2O                          1.0000000     81926.923    295.000

 O/F=    1.00000  %FUEL= 50.000000  R,EQ.RATIO= 4.227617  PHI,EQ.RATIO= 6.591481

                 CHAMBER   THROAT
 Pinf/P            1.0000   1.7420
 P, BAR            20.684   11.874
 T, K             1190.59  1122.44
 RHO, KG/CU M    3.7213 0 2.3047 0
 H, KJ/KG        -1340.53 -1637.49
 U, KJ/KG        -1896.36 -2152.69
 G, KJ/KG        -14933.7 -14452.5
 S, KJ/(KG)(K)    11.4171  11.4171

 M, (1/n)          17.810   18.114
 MW, MOL WT        15.919   15.879
 (dLV/dLP)t      -1.08339 -1.08694
 (dLV/dLT)p        2.0282   2.1506
 Cp, KJ/(KG)(K)    8.5488   9.6724
 GAMMAs            1.1645   1.1528
 SON VEL,M/SEC      804.5    770.7
 MACH NUMBER        0.000    1.000

 PERFORMANCE PARAMETERS

 Ae/At                      1.0000
 CSTAR, M/SEC               1164.5
 CF                         0.6618
 Ivac, M/SEC                1439.2
 Isp, M/SEC                  770.7

 MASS FRACTIONS

 CH4              0.05415  0.05294
 *CO              0.37723  0.33610
 *CO2             0.06355  0.08307
 C2H4             0.00001  0.00000
 C2H6             0.00001  0.00001
 HCN              0.00004  0.00002
 *H2              0.04669  0.04584
 H2O              0.05990  0.07037
 NH3              0.00047  0.00038
 *N2              0.31783  0.31792
 C(gr)            0.08012  0.09336

  * THERMODYNAMIC PROPERTIES FITTED TO 20000.K

 NOTE. WEIGHT FRACTION OF FUEL IN TOTAL FUELS AND OF OXIDANT IN TOTAL OXIDANTS

              THEORETICAL ROCKET PERFORMANCE ASSUMING EQUILIBRIUM

           COMPOSITION DURING EXPANSION FROM INFINITE AREA COMBUSTOR

 Pin =   350.0 PSIA
 CASE = _______________

             REACTANT                    WT FRACTION      ENERGY      TEMP
                                          (SEE NOTE)     KJ/KG-MOL      K  
 FUEL        C3H8O,2propanol              1.0000000   -272981.086    295.000
 OXIDANT     N2O                          1.0000000     81926.923    295.000

 O/F=    1.00000  %FUEL= 50.000000  R,EQ.RATIO= 4.227617  PHI,EQ.RATIO= 6.591481

                 CHAMBER   THROAT
 Pinf/P            1.0000   1.7424
 P, BAR            24.132   13.850
 T, K             1200.98  1131.79
 RHO, KG/CU M    4.3213 0 2.6764 0
 H, KJ/KG        -1340.53 -1638.97
 U, KJ/KG        -1898.97 -2156.44
 G, KJ/KG        -14966.0 -14479.5
 S, KJ/(KG)(K)    11.3453  11.3453

 M, (1/n)          17.881   18.185
 MW, MOL WT        16.000   15.957
 (dLV/dLP)t      -1.08454 -1.08796
 (dLV/dLT)p        2.0309   2.1515
 Cp, KJ/(KG)(K)    8.4770   9.5761
 GAMMAs            1.1651   1.1535
 SON VEL,M/SEC      806.6    772.6
 MACH NUMBER        0.000    1.000

 PERFORMANCE PARAMETERS

 Ae/At                      1.0000
 CSTAR, M/SEC               1167.0
 CF                         0.6620
 Ivac, M/SEC                1442.4
 Isp, M/SEC                  772.6

 MASS FRACTIONS

 CH4              0.05670  0.05538
 *CO              0.37543  0.33448
 *CO2             0.06363  0.08293
 C2H4             0.00001  0.00000
 C2H6             0.00001  0.00001
 HCN              0.00004  0.00002
 *H2              0.04592  0.04509
 H2O              0.06099  0.07152
 NH3              0.00051  0.00041
 *N2              0.31780  0.31789
 C(gr)            0.07896  0.09225

  * THERMODYNAMIC PROPERTIES FITTED TO 20000.K

 NOTE. WEIGHT FRACTION OF FUEL IN TOTAL FUELS AND OF OXIDANT IN TOTAL OXIDANTS

              THEORETICAL ROCKET PERFORMANCE ASSUMING EQUILIBRIUM

           COMPOSITION DURING EXPANSION FROM INFINITE AREA COMBUSTOR

 Pin =   400.0 PSIA
 CASE = _______________

             REACTANT                    WT FRACTION      ENERGY      TEMP
                                          (SEE NOTE)     KJ/KG-MOL      K  
 FUEL        C3H8O,2propanol              1.0000000   -272981.086    295.000
 OXIDANT     N2O                          1.0000000     81926.923    295.000

 O/F=    1.00000  %FUEL= 50.000000  R,EQ.RATIO= 4.227617  PHI,EQ.RATIO= 6.591481

                 CHAMBER   THROAT
 Pinf/P            1.0000   1.7428
 P, BAR            27.579   15.825
 T, K             1210.11  1140.00
 RHO, KG/CU M    4.9187 0 3.0466 0
 H, KJ/KG        -1340.53 -1640.25
 U, KJ/KG        -1901.22 -2159.68
 G, KJ/KG        -14994.6 -14503.3
 S, KJ/(KG)(K)    11.2833  11.2833

 M, (1/n)          17.945   18.248
 MW, MOL WT        16.073   16.026
 (dLV/dLP)t      -1.08548 -1.08879
 (dLV/dLT)p        2.0325   2.1517
 Cp, KJ/(KG)(K)    8.4121   9.4901
 GAMMAs            1.1656   1.1541
 SON VEL,M/SEC      808.4    774.2
 MACH NUMBER        0.000    1.000

 PERFORMANCE PARAMETERS

 Ae/At                      1.0000
 CSTAR, M/SEC               1169.2
 CF                         0.6622
 Ivac, M/SEC                1445.1
 Isp, M/SEC                  774.2

 MASS FRACTIONS

 CH4              0.05895  0.05755
 *CO              0.37385  0.33308
 *CO2             0.06371  0.08282
 C2H4             0.00001  0.00000
 C2H6             0.00001  0.00001
 HCN              0.00004  0.00002
 *H2              0.04524  0.04443
 H2O              0.06193  0.07252
 NH3              0.00055  0.00044
 *N2              0.31776  0.31787
 C(gr)            0.07792  0.09126

  * THERMODYNAMIC PROPERTIES FITTED TO 20000.K

 NOTE. WEIGHT FRACTION OF FUEL IN TOTAL FUELS AND OF OXIDANT IN TOTAL OXIDANTS

              THEORETICAL ROCKET PERFORMANCE ASSUMING EQUILIBRIUM

           COMPOSITION DURING EXPANSION FROM INFINITE AREA COMBUSTOR

 Pin =   450.0 PSIA
 CASE = _______________

             REACTANT                    WT FRACTION      ENERGY      TEMP
                                          (SEE NOTE)     KJ/KG-MOL      K  
 FUEL        C3H8O,2propanol              1.0000000   -272981.086    295.000
 OXIDANT     N2O                          1.0000000     81926.923    295.000

 O/F=    1.00000  %FUEL= 50.000000  R,EQ.RATIO= 4.227617  PHI,EQ.RATIO= 6.591481

                 CHAMBER   THROAT
 Pinf/P            1.0000   1.7431
 P, BAR            31.026   17.800
 T, K             1218.26  1147.34
 RHO, KG/CU M    5.5140 0 3.4154 0
 H, KJ/KG        -1340.53 -1641.38
 U, KJ/KG        -1903.21 -2162.53
 G, KJ/KG        -15020.2 -14524.7
 S, KJ/(KG)(K)    11.2289  11.2289

 M, (1/n)          18.002   18.305
 MW, MOL WT        16.140   16.089
 (dLV/dLP)t      -1.08628 -1.08948
 (dLV/dLT)p        2.0335   2.1513
 Cp, KJ/(KG)(K)    8.3528   9.4123
 GAMMAs            1.1660   1.1546
 SON VEL,M/SEC      810.0    775.7
 MACH NUMBER        0.000    1.000

 PERFORMANCE PARAMETERS

 Ae/At                      1.0000
 CSTAR, M/SEC               1171.1
 CF                         0.6624
 Ivac, M/SEC                1447.5
 Isp, M/SEC                  775.7

 MASS FRACTIONS

 CH4              0.06098  0.05949
 *CO              0.37244  0.33183
 *CO2             0.06380  0.08274
 C2H4             0.00001  0.00000
 C2H6             0.00002  0.00001
 HCN              0.00005  0.00002
 *H2              0.04463  0.04384
 H2O              0.06277  0.07338
 NH3              0.00059  0.00047
 *N2              0.31773  0.31784
 C(gr)            0.07697  0.09036

  * THERMODYNAMIC PROPERTIES FITTED TO 20000.K

 NOTE. WEIGHT FRACTION OF FUEL IN TOTAL FUELS AND OF OXIDANT IN TOTAL OXIDANTS

              THEORETICAL ROCKET PERFORMANCE ASSUMING EQUILIBRIUM

           COMPOSITION DURING EXPANSION FROM INFINITE AREA COMBUSTOR

 Pin =   500.0 PSIA
 CASE = _______________

             REACTANT                    WT FRACTION      ENERGY      TEMP
                                          (SEE NOTE)     KJ/KG-MOL      K  
 FUEL        C3H8O,2propanol              1.0000000   -272981.086    295.000
 OXIDANT     N2O                          1.0000000     81926.923    295.000

 O/F=    1.00000  %FUEL= 50.000000  R,EQ.RATIO= 4.227617  PHI,EQ.RATIO= 6.591481

                 CHAMBER   THROAT
 Pinf/P            1.0000   1.7434
 P, BAR            34.474   19.774
 T, K             1225.64  1153.97
 RHO, KG/CU M    6.1074 0 3.7832 0
 H, KJ/KG        -1340.53 -1642.39
 U, KJ/KG        -1904.98 -2165.08
 G, KJ/KG        -15043.4 -14544.1
 S, KJ/(KG)(K)    11.1803  11.1803

 M, (1/n)          18.054   18.356
 MW, MOL WT        16.200   16.147
 (dLV/dLP)t      -1.08696 -1.09007
 (dLV/dLT)p        2.0340   2.1506
 Cp, KJ/(KG)(K)    8.2982   9.3412
 GAMMAs            1.1664   1.1550
 SON VEL,M/SEC      811.4    777.0
 MACH NUMBER        0.000    1.000

 PERFORMANCE PARAMETERS

 Ae/At                      1.0000
 CSTAR, M/SEC               1172.8
 CF                         0.6625
 Ivac, M/SEC                1449.7
 Isp, M/SEC                  777.0

 MASS FRACTIONS

 CH4              0.06282  0.06126
 *CO              0.37117  0.33069
 *CO2             0.06389  0.08269
 C2H4             0.00001  0.00001
 C2H6             0.00002  0.00001
 HCN              0.00005  0.00002
 *H2              0.04408  0.04330
 H2O              0.06351  0.07416
 NH3              0.00062  0.00050
 *N2              0.31770  0.31782
 C(gr)            0.07611  0.08954

  * THERMODYNAMIC PROPERTIES FITTED TO 20000.K

 NOTE. WEIGHT FRACTION OF FUEL IN TOTAL FUELS AND OF OXIDANT IN TOTAL OXIDANTS

              THEORETICAL ROCKET PERFORMANCE ASSUMING EQUILIBRIUM

           COMPOSITION DURING EXPANSION FROM INFINITE AREA COMBUSTOR

 Pin =   550.0 PSIA
 CASE = _______________

             REACTANT                    WT FRACTION      ENERGY      TEMP
                                          (SEE NOTE)     KJ/KG-MOL      K  
 FUEL        C3H8O,2propanol              1.0000000   -272981.086    295.000
 OXIDANT     N2O                          1.0000000     81926.923    295.000

 O/F=    1.00000  %FUEL= 50.000000  R,EQ.RATIO= 4.227617  PHI,EQ.RATIO= 6.591481

                 CHAMBER   THROAT
 Pinf/P            1.0000   1.7436
 P, BAR            37.921   21.749
 T, K             1232.37  1160.03
 RHO, KG/CU M    6.6992 0 4.1498 0
 H, KJ/KG        -1340.53 -1643.29
 U, KJ/KG        -1906.58 -2167.38
 G, KJ/KG        -15064.7 -14561.9
 S, KJ/(KG)(K)    11.1364  11.1364

 M, (1/n)          18.102   18.404
 MW, MOL WT        16.256   16.200
 (dLV/dLP)t      -1.08755 -1.09058
 (dLV/dLT)p        2.0341   2.1496
 Cp, KJ/(KG)(K)    8.2476   9.2757
 GAMMAs            1.1667   1.1554
 SON VEL,M/SEC      812.7    778.2
 MACH NUMBER        0.000    1.000

 PERFORMANCE PARAMETERS

 Ae/At                      1.0000
 CSTAR, M/SEC               1174.3
 CF                         0.6627
 Ivac, M/SEC                1451.7
 Isp, M/SEC                  778.2

 MASS FRACTIONS

 CH4              0.06451  0.06287
 *CO              0.37001  0.32966
 *CO2             0.06399  0.08265
 C2H4             0.00001  0.00001
 C2H6             0.00002  0.00001
 HCN              0.00005  0.00002
 *H2              0.04357  0.04281
 H2O              0.06418  0.07486
 NH3              0.00066  0.00052
 *N2              0.31767  0.31780
 C(gr)            0.07532  0.08878

  * THERMODYNAMIC PROPERTIES FITTED TO 20000.K

 NOTE. WEIGHT FRACTION OF FUEL IN TOTAL FUELS AND OF OXIDANT IN TOTAL OXIDANTS

              THEORETICAL ROCKET PERFORMANCE ASSUMING EQUILIBRIUM

           COMPOSITION DURING EXPANSION FROM INFINITE AREA COMBUSTOR

 Pin =   600.0 PSIA
 CASE = _______________

             REACTANT                    WT FRACTION      ENERGY      TEMP
                                          (SEE NOTE)     KJ/KG-MOL      K  
 FUEL        C3H8O,2propanol              1.0000000   -272981.086    295.000
 OXIDANT     N2O                          1.0000000     81926.923    295.000

 O/F=    1.00000  %FUEL= 50.000000  R,EQ.RATIO= 4.227617  PHI,EQ.RATIO= 6.591481

                 CHAMBER   THROAT
 Pinf/P            1.0000   1.7438
 P, BAR            41.368   23.723
 T, K             1238.57  1165.61
 RHO, KG/CU M    7.2895 0 4.5156 0
 H, KJ/KG        -1340.53 -1644.12
 U, KJ/KG        -1908.04 -2169.47
 G, KJ/KG        -15084.3 -14578.3
 S, KJ/(KG)(K)    11.0965  11.0965

 M, (1/n)          18.146   18.447
 MW, MOL WT        16.309   16.249
 (dLV/dLP)t      -1.08806 -1.09102
 (dLV/dLT)p        2.0339   2.1485
 Cp, KJ/(KG)(K)    8.2005   9.2150
 GAMMAs            1.1670   1.1557
 SON VEL,M/SEC      813.8    779.2
 MACH NUMBER        0.000    1.000

 PERFORMANCE PARAMETERS

 Ae/At                      1.0000
 CSTAR, M/SEC               1175.7
 CF                         0.6628
 Ivac, M/SEC                1453.4
 Isp, M/SEC                  779.2

 MASS FRACTIONS

 CH4              0.06606  0.06436
 *CO              0.36894  0.32871
 *CO2             0.06408  0.08262
 C2H4             0.00001  0.00001
 C2H6             0.00002  0.00001
 HCN              0.00006  0.00003
 *H2              0.04310  0.04236
 H2O              0.06479  0.07549
 NH3              0.00069  0.00055
 *N2              0.31764  0.31778
 C(gr)            0.07458  0.08807

  * THERMODYNAMIC PROPERTIES FITTED TO 20000.K

 NOTE. WEIGHT FRACTION OF FUEL IN TOTAL FUELS AND OF OXIDANT IN TOTAL OXIDANTS

              THEORETICAL ROCKET PERFORMANCE ASSUMING EQUILIBRIUM

           COMPOSITION DURING EXPANSION FROM INFINITE AREA COMBUSTOR

 Pin =   650.0 PSIA
 CASE = _______________

             REACTANT                    WT FRACTION      ENERGY      TEMP
                                          (SEE NOTE)     KJ/KG-MOL      K  
 FUEL        C3H8O,2propanol              1.0000000   -272981.086    295.000
 OXIDANT     N2O                          1.0000000     81926.923    295.000

 O/F=    1.00000  %FUEL= 50.000000  R,EQ.RATIO= 4.227617  PHI,EQ.RATIO= 6.591481

                 CHAMBER   THROAT
 Pinf/P            1.0000   1.7440
 P, BAR            44.816   25.697
 T, K             1244.32  1170.78
 RHO, KG/CU M    7.8784 0 4.8805 0
 H, KJ/KG        -1340.53 -1644.87
 U, KJ/KG        -1909.37 -2171.40
 G, KJ/KG        -15102.5 -14593.5
 S, KJ/(KG)(K)    11.0599  11.0599

 M, (1/n)          18.188   18.488
 MW, MOL WT        16.357   16.295
 (dLV/dLP)t      -1.08852 -1.09140
 (dLV/dLT)p        2.0336   2.1472
 Cp, KJ/(KG)(K)    8.1563   9.1584
 GAMMAs            1.1672   1.1561
 SON VEL,M/SEC      814.8    780.2
 MACH NUMBER        0.000    1.000

 PERFORMANCE PARAMETERS

 Ae/At                      1.0000
 CSTAR, M/SEC               1177.0
 CF                         0.6629
 Ivac, M/SEC                1455.1
 Isp, M/SEC                  780.2

 MASS FRACTIONS

 CH4              0.06751  0.06575
 *CO              0.36794  0.32783
 *CO2             0.06417  0.08260
 C2H4             0.00001  0.00001
 C2H6             0.00003  0.00002
 HCN              0.00006  0.00003
 HNCO             0.00001  0.00000
 *H2              0.04267  0.04195
 H2O              0.06536  0.07607
 NH3              0.00072  0.00057
 *N2              0.31762  0.31776
 C(gr)            0.07390  0.08742

  * THERMODYNAMIC PROPERTIES FITTED TO 20000.K

 NOTE. WEIGHT FRACTION OF FUEL IN TOTAL FUELS AND OF OXIDANT IN TOTAL OXIDANTS

              THEORETICAL ROCKET PERFORMANCE ASSUMING EQUILIBRIUM

           COMPOSITION DURING EXPANSION FROM INFINITE AREA COMBUSTOR

 Pin =   700.0 PSIA
 CASE = _______________

             REACTANT                    WT FRACTION      ENERGY      TEMP
                                          (SEE NOTE)     KJ/KG-MOL      K  
 FUEL        C3H8O,2propanol              1.0000000   -272981.086    295.000
 OXIDANT     N2O                          1.0000000     81926.923    295.000

 O/F=    1.00000  %FUEL= 50.000000  R,EQ.RATIO= 4.227617  PHI,EQ.RATIO= 6.591481

                 CHAMBER   THROAT
 Pinf/P            1.0000   1.7442
 P, BAR            48.263   27.671
 T, K             1249.68  1175.60
 RHO, KG/CU M    8.4661 0 5.2447 0
 H, KJ/KG        -1340.53 -1645.57
 U, KJ/KG        -1910.60 -2173.17
 G, KJ/KG        -15119.5 -14607.7
 S, KJ/(KG)(K)    11.0260  11.0260

 M, (1/n)          18.226   18.526
 MW, MOL WT        16.403   16.339
 (dLV/dLP)t      -1.08892 -1.09174
 (dLV/dLT)p        2.0330   2.1458
 Cp, KJ/(KG)(K)    8.1147   9.1054
 GAMMAs            1.1674   1.1563
 SON VEL,M/SEC      815.8    781.1
 MACH NUMBER        0.000    1.000

 PERFORMANCE PARAMETERS

 Ae/At                      1.0000
 CSTAR, M/SEC               1178.2
 CF                         0.6630
 Ivac, M/SEC                1456.6
 Isp, M/SEC                  781.1

 MASS FRACTIONS

 CH4              0.06886  0.06704
 *CO              0.36700  0.32701
 *CO2             0.06427  0.08259
 C2H4             0.00002  0.00001
 C2H6             0.00003  0.00002
 HCN              0.00006  0.00003
 HNCO             0.00001  0.00000
 *H2              0.04227  0.04156
 H2O              0.06588  0.07661
 NH3              0.00074  0.00059
 *N2              0.31759  0.31774
 C(gr)            0.07326  0.08680

  * THERMODYNAMIC PROPERTIES FITTED TO 20000.K

 NOTE. WEIGHT FRACTION OF FUEL IN TOTAL FUELS AND OF OXIDANT IN TOTAL OXIDANTS

              THEORETICAL ROCKET PERFORMANCE ASSUMING EQUILIBRIUM

           COMPOSITION DURING EXPANSION FROM INFINITE AREA COMBUSTOR

 Pin =   750.0 PSIA
 CASE = _______________

             REACTANT                    WT FRACTION      ENERGY      TEMP
                                          (SEE NOTE)     KJ/KG-MOL      K  
 FUEL        C3H8O,2propanol              1.0000000   -272981.086    295.000
 OXIDANT     N2O                          1.0000000     81926.923    295.000

 O/F=    1.00000  %FUEL= 50.000000  R,EQ.RATIO= 4.227617  PHI,EQ.RATIO= 6.591481

                 CHAMBER   THROAT
 Pinf/P            1.0000   1.7444
 P, BAR            51.710   29.644
 T, K             1254.70  1180.11
 RHO, KG/CU M    9.0526 0 5.6081 0
 H, KJ/KG        -1340.53 -1646.22
 U, KJ/KG        -1911.75 -2174.82
 G, KJ/KG        -15135.4 -14621.1
 S, KJ/(KG)(K)    10.9946  10.9946

 M, (1/n)          18.263   18.562
 MW, MOL WT        16.446   16.380
 (dLV/dLP)t      -1.08927 -1.09204
 (dLV/dLT)p        2.0323   2.1443
 Cp, KJ/(KG)(K)    8.0755   9.0554
 GAMMAs            1.1677   1.1566
 SON VEL,M/SEC      816.7    781.9
 MACH NUMBER        0.000    1.000

 PERFORMANCE PARAMETERS

 Ae/At                      1.0000
 CSTAR, M/SEC               1179.2
 CF                         0.6631
 Ivac, M/SEC                1457.9
 Isp, M/SEC                  781.9

 MASS FRACTIONS

 CH4              0.07013  0.06825
 *CO              0.36613  0.32623
 *CO2             0.06437  0.08259
 C2H4             0.00002  0.00001
 C2H6             0.00003  0.00002
 HCN              0.00007  0.00003
 HNCO             0.00001  0.00000
 *H2              0.04189  0.04119
 H2O              0.06637  0.07711
 NH3              0.00077  0.00061
 *N2              0.31757  0.31772
 C(gr)            0.07265  0.08623

  * THERMODYNAMIC PROPERTIES FITTED TO 20000.K

 NOTE. WEIGHT FRACTION OF FUEL IN TOTAL FUELS AND OF OXIDANT IN TOTAL OXIDANTS

              THEORETICAL ROCKET PERFORMANCE ASSUMING EQUILIBRIUM

           COMPOSITION DURING EXPANSION FROM INFINITE AREA COMBUSTOR

 Pin =   800.0 PSIA
 CASE = _______________

             REACTANT                    WT FRACTION      ENERGY      TEMP
                                          (SEE NOTE)     KJ/KG-MOL      K  
 FUEL        C3H8O,2propanol              1.0000000   -272981.086    295.000
 OXIDANT     N2O                          1.0000000     81926.923    295.000

 O/F=    1.00000  %FUEL= 50.000000  R,EQ.RATIO= 4.227617  PHI,EQ.RATIO= 6.591481

                 CHAMBER   THROAT
 Pinf/P            1.0000   1.7445
 P, BAR            55.158   31.618
 T, K             1259.43  1184.37
 RHO, KG/CU M    9.6381 0 5.9709 0
 H, KJ/KG        -1340.53 -1646.83
 U, KJ/KG        -1912.82 -2176.36
 G, KJ/KG        -15150.4 -14633.7
 S, KJ/(KG)(K)    10.9652  10.9652

 M, (1/n)          18.298   18.596
 MW, MOL WT        16.487   16.418
 (dLV/dLP)t      -1.08960 -1.09230
 (dLV/dLT)p        2.0316   2.1428
 Cp, KJ/(KG)(K)    8.0383   9.0083
 GAMMAs            1.1678   1.1569
 SON VEL,M/SEC      817.5    782.7
 MACH NUMBER        0.000    1.000

 PERFORMANCE PARAMETERS

 Ae/At                      1.0000
 CSTAR, M/SEC               1180.3
 CF                         0.6631
 Ivac, M/SEC                1459.2
 Isp, M/SEC                  782.7

 MASS FRACTIONS

 CH4              0.07132  0.06940
 *CO              0.36530  0.32550
 *CO2             0.06446  0.08260
 C2H4             0.00002  0.00001
 C2H6             0.00003  0.00002
 HCN              0.00007  0.00003
 HNCO             0.00001  0.00000
 *H2              0.04153  0.04085
 H2O              0.06682  0.07757
 NH3              0.00080  0.00064
 *N2              0.31755  0.31770
 C(gr)            0.07209  0.08568

  * THERMODYNAMIC PROPERTIES FITTED TO 20000.K

 NOTE. WEIGHT FRACTION OF FUEL IN TOTAL FUELS AND OF OXIDANT IN TOTAL OXIDANTS

              THEORETICAL ROCKET PERFORMANCE ASSUMING EQUILIBRIUM

           COMPOSITION DURING EXPANSION FROM INFINITE AREA COMBUSTOR

 Pin =   850.0 PSIA
 CASE = _______________

             REACTANT                    WT FRACTION      ENERGY      TEMP
                                          (SEE NOTE)     KJ/KG-MOL      K  
 FUEL        C3H8O,2propanol              1.0000000   -272981.086    295.000
 OXIDANT     N2O                          1.0000000     81926.923    295.000

 O/F=    1.00000  %FUEL= 50.000000  R,EQ.RATIO= 4.227617  PHI,EQ.RATIO= 6.591481

                 CHAMBER   THROAT
 Pinf/P            1.0000   1.7446
 P, BAR            58.605   33.591
 T, K             1263.89  1188.38
 RHO, KG/CU M    1.0223 1 6.3331 0
 H, KJ/KG        -1340.53 -1647.39
 U, KJ/KG        -1913.82 -2177.80
 G, KJ/KG        -15164.6 -14645.5
 S, KJ/(KG)(K)    10.9377  10.9377

 M, (1/n)          18.330   18.629
 MW, MOL WT        16.526   16.455
 (dLV/dLP)t      -1.08989 -1.09254
 (dLV/dLT)p        2.0307   2.1412
 Cp, KJ/(KG)(K)    8.0030   8.9637
 GAMMAs            1.1680   1.1571
 SON VEL,M/SEC      818.3    783.4
 MACH NUMBER        0.000    1.000

 PERFORMANCE PARAMETERS

 Ae/At                      1.0000
 CSTAR, M/SEC               1181.2
 CF                         0.6632
 Ivac, M/SEC                1460.5
 Isp, M/SEC                  783.4

 MASS FRACTIONS

 CH4              0.07245  0.07047
 *CO              0.36451  0.32481
 *CO2             0.06456  0.08261
 C2H4             0.00002  0.00001
 C2H6             0.00003  0.00002
 HCN              0.00007  0.00003
 HNCO             0.00001  0.00000
 *H2              0.04120  0.04053
 H2O              0.06725  0.07801
 NH3              0.00082  0.00066
 *N2              0.31752  0.31768
 C(gr)            0.07155  0.08516

  * THERMODYNAMIC PROPERTIES FITTED TO 20000.K

 NOTE. WEIGHT FRACTION OF FUEL IN TOTAL FUELS AND OF OXIDANT IN TOTAL OXIDANTS

              THEORETICAL ROCKET PERFORMANCE ASSUMING EQUILIBRIUM

           COMPOSITION DURING EXPANSION FROM INFINITE AREA COMBUSTOR

 Pin =   900.0 PSIA
 CASE = _______________

             REACTANT                    WT FRACTION      ENERGY      TEMP
                                          (SEE NOTE)     KJ/KG-MOL      K  
 FUEL        C3H8O,2propanol              1.0000000   -272981.086    295.000
 OXIDANT     N2O                          1.0000000     81926.923    295.000

 O/F=    1.00000  %FUEL= 50.000000  R,EQ.RATIO= 4.227617  PHI,EQ.RATIO= 6.591481

                 CHAMBER   THROAT
 Pinf/P            1.0000   1.7448
 P, BAR            62.053   35.565
 T, K             1268.12  1192.18
 RHO, KG/CU M    1.0806 1 6.6947 0
 H, KJ/KG        -1340.53 -1647.92
 U, KJ/KG        -1914.76 -2179.16
 G, KJ/KG        -15178.0 -14656.8
 S, KJ/(KG)(K)    10.9118  10.9118

 M, (1/n)          18.362   18.659
 MW, MOL WT        16.563   16.490
 (dLV/dLP)t      -1.09015 -1.09276
 (dLV/dLT)p        2.0298   2.1396
 Cp, KJ/(KG)(K)    7.9694   8.9212
 GAMMAs            1.1682   1.1573
 SON VEL,M/SEC      819.0    784.1
 MACH NUMBER        0.000    1.000

 PERFORMANCE PARAMETERS

 Ae/At                      1.0000
 CSTAR, M/SEC               1182.1
 CF                         0.6633
 Ivac, M/SEC                1461.6
 Isp, M/SEC                  784.1

 MASS FRACTIONS

 CH4              0.07352  0.07150
 *CO              0.36376  0.32415
 *CO2             0.06465  0.08262
 C2H4             0.00002  0.00001
 C2H6             0.00004  0.00002
 HCN              0.00007  0.00003
 HNCO             0.00001  0.00000
 *H2              0.04088  0.04022
 H2O              0.06765  0.07842
 NH3              0.00085  0.00068
 *N2              0.31750  0.31767
 C(gr)            0.07104  0.08467

  * THERMODYNAMIC PROPERTIES FITTED TO 20000.K

 NOTE. WEIGHT FRACTION OF FUEL IN TOTAL FUELS AND OF OXIDANT IN TOTAL OXIDANTS

              THEORETICAL ROCKET PERFORMANCE ASSUMING EQUILIBRIUM

           COMPOSITION DURING EXPANSION FROM INFINITE AREA COMBUSTOR

 Pin =   950.0 PSIA
 CASE = _______________

             REACTANT                    WT FRACTION      ENERGY      TEMP
                                          (SEE NOTE)     KJ/KG-MOL      K  
 FUEL        C3H8O,2propanol              1.0000000   -272981.086    295.000
 OXIDANT     N2O                          1.0000000     81926.923    295.000

 O/F=    1.00000  %FUEL= 50.000000  R,EQ.RATIO= 4.227617  PHI,EQ.RATIO= 6.591481

                 CHAMBER   THROAT
 Pinf/P            1.0000   1.7449
 P, BAR            65.500   37.538
 T, K             1272.14  1195.80
 RHO, KG/CU M    1.1389 1 7.0558 0
 H, KJ/KG        -1340.53 -1648.43
 U, KJ/KG        -1915.65 -2180.44
 G, KJ/KG        -15190.8 -14667.5
 S, KJ/(KG)(K)    10.8873  10.8873

 M, (1/n)          18.391   18.688
 MW, MOL WT        16.598   16.523
 (dLV/dLP)t      -1.09038 -1.09295
 (dLV/dLT)p        2.0288   2.1380
 Cp, KJ/(KG)(K)    7.9373   8.8808
 GAMMAs            1.1683   1.1575
 SON VEL,M/SEC      819.7    784.7
 MACH NUMBER        0.000    1.000

 PERFORMANCE PARAMETERS

 Ae/At                      1.0000
 CSTAR, M/SEC               1183.0
 CF                         0.6634
 Ivac, M/SEC                1462.7
 Isp, M/SEC                  784.7

 MASS FRACTIONS

 CH4              0.07453  0.07247
 *CO              0.36305  0.32352
 *CO2             0.06474  0.08264
 CH3CN            0.00001  0.00000
 C2H4             0.00002  0.00001
 C2H6             0.00004  0.00002
 HCN              0.00008  0.00003
 HNCO             0.00001  0.00000
 *H2              0.04058  0.03993
 H2O              0.06803  0.07880
 NH3              0.00087  0.00069
 *N2              0.31748  0.31765
 C(gr)            0.07056  0.08421

  * THERMODYNAMIC PROPERTIES FITTED TO 20000.K

 NOTE. WEIGHT FRACTION OF FUEL IN TOTAL FUELS AND OF OXIDANT IN TOTAL OXIDANTS

              THEORETICAL ROCKET PERFORMANCE ASSUMING EQUILIBRIUM

           COMPOSITION DURING EXPANSION FROM INFINITE AREA COMBUSTOR

 Pin =  1000.0 PSIA
 CASE = _______________

             REACTANT                    WT FRACTION      ENERGY      TEMP
                                          (SEE NOTE)     KJ/KG-MOL      K  
 FUEL        C3H8O,2propanol              1.0000000   -272981.086    295.000
 OXIDANT     N2O                          1.0000000     81926.923    295.000

 O/F=    1.00000  %FUEL= 50.000000  R,EQ.RATIO= 4.227617  PHI,EQ.RATIO= 6.591481

                 CHAMBER   THROAT
 Pinf/P            1.0000   1.7450
 P, BAR            68.947   39.511
 T, K             1275.98  1199.25
 RHO, KG/CU M    1.1971 1 7.4164 0
 H, KJ/KG        -1340.53 -1648.90
 U, KJ/KG        -1916.48 -2181.65
 G, KJ/KG        -15202.9 -14677.7
 S, KJ/(KG)(K)    10.8642  10.8642

 M, (1/n)          18.420   18.716
 MW, MOL WT        16.632   16.555
 (dLV/dLP)t      -1.09060 -1.09312
 (dLV/dLT)p        2.0278   2.1364
 Cp, KJ/(KG)(K)    7.9066   8.8422
 GAMMAs            1.1684   1.1577
 SON VEL,M/SEC      820.3    785.3
 MACH NUMBER        0.000    1.000

 PERFORMANCE PARAMETERS

 Ae/At                      1.0000
 CSTAR, M/SEC               1183.8
 CF                         0.6634
 Ivac, M/SEC                1463.7
 Isp, M/SEC                  785.3

 MASS FRACTIONS

 CH4              0.07550  0.07340
 *CO              0.36237  0.32292
 *CO2             0.06484  0.08267
 CH3CN            0.00001  0.00000
 C2H4             0.00002  0.00001
 C2H6             0.00004  0.00002
 HCN              0.00008  0.00004
 HNCO             0.00001  0.00000
 *H2              0.04029  0.03965
 H2O              0.06839  0.07917
 NH3              0.00089  0.00071
 *N2              0.31746  0.31763
 C(gr)            0.07009  0.08376

  * THERMODYNAMIC PROPERTIES FITTED TO 20000.K

 NOTE. WEIGHT FRACTION OF FUEL IN TOTAL FUELS AND OF OXIDANT IN TOTAL OXIDANTS

              THEORETICAL ROCKET PERFORMANCE ASSUMING EQUILIBRIUM

           COMPOSITION DURING EXPANSION FROM INFINITE AREA COMBUSTOR

 Pin =    50.0 PSIA
 CASE = _______________

             REACTANT                    WT FRACTION      ENERGY      TEMP
                                          (SEE NOTE)     KJ/KG-MOL      K  
[...]
 Isp, M/SEC                 1032.6

 MASS FRACTIONS

 *CO              0.06823  0.05652
 *CO2             0.16741  0.18582
 *H               0.00024  0.00017
 HNO              0.00001  0.00000
 HO2              0.00007  0.00004
 *H2              0.00115  0.00093
 H2O              0.12649  0.13124
 H2O2             0.00001  0.00000
 *NO              0.02329  0.01836
 NO2              0.00005  0.00003
 *N2              0.54602  0.54834
 N2O              0.00001  0.00001
 *O               0.00438  0.00313
 *OH              0.02068  0.01662
 *O2              0.04194  0.03879

  * THERMODYNAMIC PROPERTIES FITTED TO 20000.K

 NOTE. WEIGHT FRACTION OF FUEL IN TOTAL FUELS AND OF OXIDANT IN TOTAL OXIDANTS

              THEORETICAL ROCKET PERFORMANCE ASSUMING EQUILIBRIUM

           COMPOSITION DURING EXPANSION FROM INFINITE AREA COMBUSTOR

 Pin =   600.0 PSIA
 CASE = _______________

             REACTANT                    WT FRACTION      ENERGY      TEMP
                                          (SEE NOTE)     KJ/KG-MOL      K  
 FUEL        C3H8O,2propanol              1.0000000   -272981.086    295.000
 OXIDANT     N2O                          1.0000000     81926.923    295.000

 O/F=    7.00000  %FUEL= 12.500000  R,EQ.RATIO= 0.947168  PHI,EQ.RATIO= 0.941640

                 CHAMBER   THROAT
 Pinf/P            1.0000   1.7364
 P, BAR            41.368   23.824
 T, K             3247.08  3063.53
 RHO, KG/CU M    4.1285 0 2.5482 0
 H, KJ/KG         1060.94   526.75
 U, KJ/KG          58.921  -408.17
 G, KJ/KG        -30491.7 -29242.3
 S, KJ/(KG)(K)     9.7172   9.7172

 M, (1/n)          26.943   27.245
 MW, MOL WT        26.943   27.245
 (dLV/dLP)t      -1.01847 -1.01551
 (dLV/dLT)p        1.3714   1.3322
 Cp, KJ/(KG)(K)    4.0042   3.8570
 GAMMAs            1.1448   1.1428
 SON VEL,M/SEC     1071.0   1033.6
 MACH NUMBER        0.000    1.000

 PERFORMANCE PARAMETERS

 Ae/At                      1.0000
 CSTAR, M/SEC               1570.6
 CF                         0.6581
 Ivac, M/SEC                1938.1
 Isp, M/SEC                 1033.6

 MASS FRACTIONS

 *CO              0.06764  0.05593
 *CO2             0.16834  0.18675
 *H               0.00023  0.00016
 HNO              0.00001  0.00000
 HO2              0.00007  0.00005
 *H2              0.00114  0.00092
 H2O              0.12678  0.13149
 H2O2             0.00001  0.00000
 *NO              0.02337  0.01841
 NO2              0.00005  0.00003
 *N2              0.54598  0.54831
 N2O              0.00001  0.00001
 *O               0.00428  0.00305
 *OH              0.02051  0.01646
 *O2              0.04157  0.03842

  * THERMODYNAMIC PROPERTIES FITTED TO 20000.K

 NOTE. WEIGHT FRACTION OF FUEL IN TOTAL FUELS AND OF OXIDANT IN TOTAL OXIDANTS

              THEORETICAL ROCKET PERFORMANCE ASSUMING EQUILIBRIUM

           COMPOSITION DURING EXPANSION FROM INFINITE AREA COMBUSTOR

 Pin =   650.0 PSIA
 CASE = _______________

             REACTANT                    WT FRACTION      ENERGY      TEMP
                                          (SEE NOTE)     KJ/KG-MOL      K  
 FUEL        C3H8O,2propanol              1.0000000   -272981.086    295.000
 OXIDANT     N2O                          1.0000000     81926.923    295.000

 O/F=    7.00000  %FUEL= 12.500000  R,EQ.RATIO= 0.947168  PHI,EQ.RATIO= 0.941640

                 CHAMBER   THROAT
 Pinf/P            1.0000   1.7367
 P, BAR            44.816   25.804
 T, K             3254.51  3069.69
 RHO, KG/CU M    4.4651 0 2.7561 0
 H, KJ/KG         1060.94   525.76
 U, KJ/KG          57.258  -410.51
 G, KJ/KG        -30483.5 -29227.4
 S, KJ/(KG)(K)     9.6925   9.6925

 M, (1/n)          26.960   27.260
 MW, MOL WT        26.960   27.260
 (dLV/dLP)t      -1.01828 -1.01533
 (dLV/dLT)p        1.3669   1.3279
 Cp, KJ/(KG)(K)    3.9713   3.8250
 GAMMAs            1.1452   1.1432
 SON VEL,M/SEC     1072.1   1034.6
 MACH NUMBER        0.000    1.000

 PERFORMANCE PARAMETERS

 Ae/At                     1.00000
 CSTAR, M/SEC               1571.7
 CF                         0.6583
 Ivac, M/SEC                1939.6
 Isp, M/SEC                 1034.6

 MASS FRACTIONS

 *CO              0.06710  0.05539
 *CO2             0.16919  0.18760
 *H               0.00022  0.00016
 HNO              0.00001  0.00001
 HNO2             0.00001  0.00000
 HO2              0.00008  0.00005
 *H2              0.00112  0.00091
 H2O              0.12705  0.13173
 H2O2             0.00001  0.00000
 *NO              0.02345  0.01846
 NO2              0.00005  0.00003
 *N2              0.54594  0.54828
 N2O              0.00001  0.00001
 *O               0.00418  0.00297
 *OH              0.02035  0.01631
 *O2              0.04122  0.03809

  * THERMODYNAMIC PROPERTIES FITTED TO 20000.K

 NOTE. WEIGHT FRACTION OF FUEL IN TOTAL FUELS AND OF OXIDANT IN TOTAL OXIDANTS

              THEORETICAL ROCKET PERFORMANCE ASSUMING EQUILIBRIUM

           COMPOSITION DURING EXPANSION FROM INFINITE AREA COMBUSTOR

 Pin =   700.0 PSIA
 CASE = _______________

             REACTANT                    WT FRACTION      ENERGY      TEMP
                                          (SEE NOTE)     KJ/KG-MOL      K  
 FUEL        C3H8O,2propanol              1.0000000   -272981.086    295.000
 OXIDANT     N2O                          1.0000000     81926.923    295.000

 O/F=    7.00000  %FUEL= 12.500000  R,EQ.RATIO= 0.947168  PHI,EQ.RATIO= 0.941640

                 CHAMBER   THROAT
 Pinf/P            1.0000   1.7370
 P, BAR            48.263   27.785
 T, K             3261.37  3075.38
 RHO, KG/CU M    4.8012 0 2.9637 0
 H, KJ/KG         1060.94   524.84
 U, KJ/KG          55.723  -412.67
 G, KJ/KG        -30475.5 -29213.1
 S, KJ/(KG)(K)     9.6697   9.6697

 M, (1/n)          26.976   27.275
 MW, MOL WT        26.976   27.275
 (dLV/dLP)t      -1.01810 -1.01516
 (dLV/dLT)p        1.3628   1.3240
 Cp, KJ/(KG)(K)    3.9412   3.7957
 GAMMAs            1.1457   1.1437
 SON VEL,M/SEC     1073.1   1035.5
 MACH NUMBER        0.000    1.000

 PERFORMANCE PARAMETERS

 Ae/At                      1.0000
 CSTAR, M/SEC               1572.7
 CF                         0.6584
 Ivac, M/SEC                1940.9
 Isp, M/SEC                 1035.5

 MASS FRACTIONS

 *CO              0.06659  0.05488
 *CO2             0.16999  0.18839
 *H               0.00022  0.00015
 HNO              0.00001  0.00001
 HNO2             0.00001  0.00000
 HO2              0.00008  0.00005
 *H2              0.00111  0.00089
 H2O              0.12729  0.13194
 H2O2             0.00001  0.00000
 *NO              0.02353  0.01851
 NO2              0.00005  0.00003
 *N2              0.54591  0.54826
 N2O              0.00001  0.00001
 *O               0.00409  0.00291
 *OH              0.02020  0.01618
 *O2              0.04089  0.03777

  * THERMODYNAMIC PROPERTIES FITTED TO 20000.K

 NOTE. WEIGHT FRACTION OF FUEL IN TOTAL FUELS AND OF OXIDANT IN TOTAL OXIDANTS

              THEORETICAL ROCKET PERFORMANCE ASSUMING EQUILIBRIUM

           COMPOSITION DURING EXPANSION FROM INFINITE AREA COMBUSTOR

 Pin =   750.0 PSIA
 CASE = _______________

             REACTANT                    WT FRACTION      ENERGY      TEMP
                                          (SEE NOTE)     KJ/KG-MOL      K  
 FUEL        C3H8O,2propanol              1.0000000   -272981.086    295.000
 OXIDANT     N2O                          1.0000000     81926.923    295.000

 O/F=    7.00000  %FUEL= 12.500000  R,EQ.RATIO= 0.947168  PHI,EQ.RATIO= 0.941640

                 CHAMBER   THROAT
 Pinf/P            1.0000   1.7373
 P, BAR            51.710   29.765
 T, K             3267.75  3080.66
 RHO, KG/CU M    5.1369 0 3.1710 0
 H, KJ/KG         1060.94   523.99
 U, KJ/KG          54.299  -414.68
 G, KJ/KG        -30467.7 -29199.5
 S, KJ/(KG)(K)     9.6484   9.6484

 M, (1/n)          26.990   27.288
 MW, MOL WT        26.990   27.288
 (dLV/dLP)t      -1.01793 -1.01501
 (dLV/dLT)p        1.3589   1.3204
 Cp, KJ/(KG)(K)    3.9135   3.7687
 GAMMAs            1.1460   1.1441
 SON VEL,M/SEC     1074.1   1036.3
 MACH NUMBER        0.000    1.000

 PERFORMANCE PARAMETERS

 Ae/At                      1.0000
 CSTAR, M/SEC               1573.6
 CF                         0.6586
 Ivac, M/SEC                1942.1
 Isp, M/SEC                 1036.3

 MASS FRACTIONS

 *CO              0.06612  0.05441
 *CO2             0.17074  0.18914
 *H               0.00021  0.00015
 HNO              0.00001  0.00001
 HNO2             0.00001  0.00000
 HO2              0.00008  0.00005
 *H2              0.00110  0.00088
 H2O              0.12752  0.13214
 H2O2             0.00001  0.00000
 *NO              0.02359  0.01855
 NO2              0.00005  0.00003
 *N2              0.54587  0.54824
 N2O              0.00001  0.00001
 *O               0.00401  0.00285
 *OH              0.02006  0.01605
 *O2              0.04059  0.03748

  * THERMODYNAMIC PROPERTIES FITTED TO 20000.K

 NOTE. WEIGHT FRACTION OF FUEL IN TOTAL FUELS AND OF OXIDANT IN TOTAL OXIDANTS

              THEORETICAL ROCKET PERFORMANCE ASSUMING EQUILIBRIUM

           COMPOSITION DURING EXPANSION FROM INFINITE AREA COMBUSTOR

 Pin =   800.0 PSIA
 CASE = _______________

             REACTANT                    WT FRACTION      ENERGY      TEMP
                                          (SEE NOTE)     KJ/KG-MOL      K  
 FUEL        C3H8O,2propanol              1.0000000   -272981.086    295.000
 OXIDANT     N2O                          1.0000000     81926.923    295.000

 O/F=    7.00000  %FUEL= 12.500000  R,EQ.RATIO= 0.947168  PHI,EQ.RATIO= 0.941640

                 CHAMBER   THROAT
 Pinf/P            1.0000   1.7375
 P, BAR            55.158   31.745
 T, K             3273.70  3085.58
 RHO, KG/CU M    5.4722 0 3.3781 0
 H, KJ/KG         1060.94   523.19
 U, KJ/KG          52.972  -416.54
 G, KJ/KG        -30460.1 -29186.5
 S, KJ/(KG)(K)     9.6286   9.6286

 M, (1/n)          27.004   27.300
 MW, MOL WT        27.004   27.300
 (dLV/dLP)t      -1.01777 -1.01487
 (dLV/dLT)p        1.3554   1.3170
 Cp, KJ/(KG)(K)    3.8878   3.7437
 GAMMAs            1.1464   1.1445
 SON VEL,M/SEC     1075.0   1037.1
 MACH NUMBER        0.000    1.000

 PERFORMANCE PARAMETERS

 Ae/At                      1.0000
 CSTAR, M/SEC               1574.4
 CF                         0.6587
 Ivac, M/SEC                1943.2
 Isp, M/SEC                 1037.1

 MASS FRACTIONS

 *CO              0.06567  0.05397
 *CO2             0.17144  0.18983
 *H               0.00021  0.00015
 HNO              0.00001  0.00001
 HNO2             0.00001  0.00000
 HO2              0.00008  0.00005
 *H2              0.00109  0.00087
 H2O              0.12774  0.13233
 H2O2             0.00001  0.00000
 *NO              0.02365  0.01859
 NO2              0.00005  0.00003
 *N2              0.54585  0.54823
 N2O              0.00001  0.00001
 *O               0.00394  0.00279
 *OH              0.01993  0.01593
 *O2              0.04031  0.03721

  * THERMODYNAMIC PROPERTIES FITTED TO 20000.K

 NOTE. WEIGHT FRACTION OF FUEL IN TOTAL FUELS AND OF OXIDANT IN TOTAL OXIDANTS

              THEORETICAL ROCKET PERFORMANCE ASSUMING EQUILIBRIUM

           COMPOSITION DURING EXPANSION FROM INFINITE AREA COMBUSTOR

 Pin =   850.0 PSIA
 CASE = _______________

             REACTANT                    WT FRACTION      ENERGY      TEMP
                                          (SEE NOTE)     KJ/KG-MOL      K  
 FUEL        C3H8O,2propanol              1.0000000   -272981.086    295.000
 OXIDANT     N2O                          1.0000000     81926.923    295.000

 O/F=    7.00000  %FUEL= 12.500000  R,EQ.RATIO= 0.947168  PHI,EQ.RATIO= 0.941640

                 CHAMBER   THROAT
 Pinf/P            1.0000   1.7377
 P, BAR            58.605   33.725
 T, K             3279.28  3090.18
 RHO, KG/CU M    5.8070 0 3.5849 0
 H, KJ/KG         1060.94   522.45
 U, KJ/KG          51.729  -418.29
 G, KJ/KG        -30452.6 -29173.9
 S, KJ/(KG)(K)     9.6099   9.6099

 M, (1/n)          27.017   27.312
 MW, MOL WT        27.017   27.312
 (dLV/dLP)t      -1.01763 -1.01473
 (dLV/dLT)p        1.3521   1.3139
 Cp, KJ/(KG)(K)    3.8640   3.7204
 GAMMAs            1.1468   1.1448
 SON VEL,M/SEC     1075.8   1037.8
 MACH NUMBER        0.000    1.000

 PERFORMANCE PARAMETERS

 Ae/At                      1.0000
 CSTAR, M/SEC               1575.2
 CF                         0.6588
 Ivac, M/SEC                1944.3
 Isp, M/SEC                 1037.8

 MASS FRACTIONS

 *CO              0.06525  0.05355
 *CO2             0.17210  0.19049
 *H               0.00020  0.00014
 HNO              0.00001  0.00001
 HNO2             0.00001  0.00000
 HO2              0.00008  0.00005
 *H2              0.00108  0.00086
 H2O              0.12793  0.13250
 H2O2             0.00001  0.00001
 *NO              0.02371  0.01862
 NO2              0.00005  0.00004
 *N2              0.54582  0.54821
 N2O              0.00001  0.00001
 *O               0.00387  0.00274
 *OH              0.01981  0.01582
 *O2              0.04005  0.03696

  * THERMODYNAMIC PROPERTIES FITTED TO 20000.K

 NOTE. WEIGHT FRACTION OF FUEL IN TOTAL FUELS AND OF OXIDANT IN TOTAL OXIDANTS

              THEORETICAL ROCKET PERFORMANCE ASSUMING EQUILIBRIUM

           COMPOSITION DURING EXPANSION FROM INFINITE AREA COMBUSTOR

 Pin =   900.0 PSIA
 CASE = _______________

             REACTANT                    WT FRACTION      ENERGY      TEMP
                                          (SEE NOTE)     KJ/KG-MOL      K  
 FUEL        C3H8O,2propanol              1.0000000   -272981.086    295.000
 OXIDANT     N2O                          1.0000000     81926.923    295.000

 O/F=    7.00000  %FUEL= 12.500000  R,EQ.RATIO= 0.947168  PHI,EQ.RATIO= 0.941640

                 CHAMBER   THROAT
 Pinf/P            1.0000   1.7379
 P, BAR            62.053   35.705
 T, K             3284.54  3094.51
 RHO, KG/CU M    6.1415 0 3.7916 0
 H, KJ/KG         1060.94   521.74
 U, KJ/KG          50.560  -419.94
 G, KJ/KG        -30445.3 -29161.8
 S, KJ/(KG)(K)     9.5923   9.5923

 M, (1/n)          27.029   27.323
 MW, MOL WT        27.029   27.323
 (dLV/dLP)t      -1.01749 -1.01461
 (dLV/dLT)p        1.3490   1.3109
 Cp, KJ/(KG)(K)    3.8417   3.6987
 GAMMAs            1.1471   1.1452
 SON VEL,M/SEC     1076.6   1038.5
 MACH NUMBER        0.000    1.000

 PERFORMANCE PARAMETERS

 Ae/At                      1.0000
 CSTAR, M/SEC               1576.0
 CF                         0.6589
 Ivac, M/SEC                1945.3
 Isp, M/SEC                 1038.5

 MASS FRACTIONS

 *CO              0.06485  0.05315
 *CO2             0.17272  0.19110
 *H               0.00020  0.00014
 HNO              0.00001  0.00001
 HNO2             0.00001  0.00000
 HO2              0.00008  0.00005
 *H2              0.00107  0.00085
 H2O              0.12812  0.13266
 H2O2             0.00001  0.00001
 *NO              0.02376  0.01865
 NO2              0.00006  0.00004
 *N2              0.54579  0.54819
 N2O              0.00001  0.00001
 *O               0.00380  0.00269
 *OH              0.01969  0.01572
 *O2              0.03980  0.03672

  * THERMODYNAMIC PROPERTIES FITTED TO 20000.K

 NOTE. WEIGHT FRACTION OF FUEL IN TOTAL FUELS AND OF OXIDANT IN TOTAL OXIDANTS

              THEORETICAL ROCKET PERFORMANCE ASSUMING EQUILIBRIUM

           COMPOSITION DURING EXPANSION FROM INFINITE AREA COMBUSTOR

 Pin =   950.0 PSIA
 CASE = _______________

             REACTANT                    WT FRACTION      ENERGY      TEMP
                                          (SEE NOTE)     KJ/KG-MOL      K  
 FUEL        C3H8O,2propanol              1.0000000   -272981.086    295.000
 OXIDANT     N2O                          1.0000000     81926.923    295.000

 O/F=    7.00000  %FUEL= 12.500000  R,EQ.RATIO= 0.947168  PHI,EQ.RATIO= 0.941640

                 CHAMBER   THROAT
 Pinf/P            1.0000   1.7381
 P, BAR            65.500   37.684
 T, K             3289.49  3098.60
 RHO, KG/CU M    6.4756 0 3.9980 0
 H, KJ/KG         1060.94   521.08
 U, KJ/KG          49.458  -421.49
 G, KJ/KG        -30438.2 -29150.1
 S, KJ/(KG)(K)     9.5757   9.5757

 M, (1/n)          27.040   27.333
 MW, MOL WT        27.040   27.333
 (dLV/dLP)t      -1.01736 -1.01449
 (dLV/dLT)p        1.3460   1.3081
 Cp, KJ/(KG)(K)    3.8207   3.6783
 GAMMAs            1.1474   1.1455
 SON VEL,M/SEC     1077.3   1039.1
 MACH NUMBER        0.000    1.000

 PERFORMANCE PARAMETERS

 Ae/At                      1.0000
 CSTAR, M/SEC               1576.7
 CF                         0.6590
 Ivac, M/SEC                1946.2
 Isp, M/SEC                 1039.1

 MASS FRACTIONS

 *CO              0.06447  0.05278
 *CO2             0.17332  0.19169
 COOH             0.00001  0.00000
 *H               0.00020  0.00014
 HNO              0.00001  0.00001
 HNO2             0.00001  0.00000
 HO2              0.00009  0.00005
 *H2              0.00106  0.00085
 H2O              0.12830  0.13282
 H2O2             0.00001  0.00001
 *NO              0.02381  0.01868
 NO2              0.00006  0.00004
 *N2              0.54577  0.54818
 N2O              0.00001  0.00001
 *O               0.00374  0.00264
 *OH              0.01958  0.01562
 *O2              0.03956  0.03649

  * THERMODYNAMIC PROPERTIES FITTED TO 20000.K

 NOTE. WEIGHT FRACTION OF FUEL IN TOTAL FUELS AND OF OXIDANT IN TOTAL OXIDANTS

              THEORETICAL ROCKET PERFORMANCE ASSUMING EQUILIBRIUM

           COMPOSITION DURING EXPANSION FROM INFINITE AREA COMBUSTOR

 Pin =  1000.0 PSIA
 CASE = _______________

             REACTANT                    WT FRACTION      ENERGY      TEMP
                                          (SEE NOTE)     KJ/KG-MOL      K  
 FUEL        C3H8O,2propanol              1.0000000   -272981.086    295.000
 OXIDANT     N2O                          1.0000000     81926.923    295.000

 O/F=    7.00000  %FUEL= 12.500000  R,EQ.RATIO= 0.947168  PHI,EQ.RATIO= 0.941640

                 CHAMBER   THROAT
 Pinf/P            1.0000   1.7383
 P, BAR            68.947   39.663
 T, K             3294.19  3102.47
 RHO, KG/CU M    6.8094 0 4.2042 0
 H, KJ/KG         1060.94   520.45
 U, KJ/KG          48.416  -422.96
 G, KJ/KG        -30431.2 -29138.8
 S, KJ/(KG)(K)     9.5599   9.5599

 M, (1/n)          27.051   27.343
 MW, MOL WT        27.051   27.343
 (dLV/dLP)t      -1.01724 -1.01438
 (dLV/dLT)p        1.3433   1.3055
 Cp, KJ/(KG)(K)    3.8010   3.6591
 GAMMAs            1.1477   1.1458
 SON VEL,M/SEC     1078.0   1039.7
 MACH NUMBER        0.000    1.000

 PERFORMANCE PARAMETERS

 Ae/At                      1.0000
 CSTAR, M/SEC               1577.3
 CF                         0.6591
 Ivac, M/SEC                1947.1
 Isp, M/SEC                 1039.7

 MASS FRACTIONS

 *CO              0.06411  0.05243
 *CO2             0.17388  0.19225
 COOH             0.00001  0.00000
 *H               0.00019  0.00013
 HNO              0.00001  0.00001
 HNO2             0.00001  0.00000
 HO2              0.00009  0.00005
 *H2              0.00105  0.00084
 H2O              0.12846  0.13296
 H2O2             0.00001  0.00001
 *NO              0.02385  0.01871
 NO2              0.00006  0.00004
 *N2              0.54575  0.54817
 N2O              0.00001  0.00001
 *O               0.00369  0.00260
 *OH              0.01948  0.01552
 *O2              0.03933  0.03627

  * THERMODYNAMIC PROPERTIES FITTED TO 20000.K

 NOTE. WEIGHT FRACTION OF FUEL IN TOTAL FUELS AND OF OXIDANT IN TOTAL OXIDANTS